<?xml version="1.0" encoding="UTF-8"?>

<!-- generated on 2025-03-03 22:39:48 by Eclipse SUMO netconvert Version 1.20.0
<configuration xmlns:xsi="http://www.w3.org/2001/XMLSchema-instance" xsi:noNamespaceSchemaLocation="http://sumo.dlr.de/xsd/netconvertConfiguration.xsd">

    <input>
        <node-files value="data/hwaseong_walk.nod.xml"/>
        <edge-files value="data/hwaseong_walk.edg.xml"/>
    </input>

    <output>
        <output-file value="data/hwaseong_walk.net.xml"/>
    </output>

    <processing>
        <geometry.remove value="true"/>
    </processing>

</configuration>
-->

<net version="1.20" junctionCornerDetail="5" limitTurnSpeed="5.50" xmlns:xsi="http://www.w3.org/2001/XMLSchema-instance" xsi:noNamespaceSchemaLocation="http://sumo.dlr.de/xsd/net_file.xsd">

    <location netOffset="-126.82,-37.19" convBoundary="0.00,0.00,0.02,0.03" origBoundary="126.82,37.19,126.84,37.22" projParameter="!"/>

    <edge id=":10046801544_0" function="internal">
        <lane id=":10046801544_0_0" index="0" speed="13.89" length="0.19" shape="-1.04,1.46 -0.90,1.32"/>
    </edge>
    <edge id=":10046801544_1" function="internal">
        <lane id=":10046801544_1_0" index="0" speed="4.09" length="5.24" shape="-1.04,1.46 -2.94,1.00 -3.74,0.45 -3.43,-0.19 -2.01,-0.92"/>
    </edge>
    <edge id=":10046801544_2" function="internal">
        <lane id=":10046801544_2_0" index="0" speed="3.65" length="4.67" shape="-1.04,1.46 -2.07,0.45 -2.32,-0.41 -1.78,-1.12 -0.46,-1.69"/>
    </edge>
    <edge id=":10046801544_3" function="internal">
        <lane id=":10046801544_3_0" index="0" speed="3.64" length="3.77" shape="-0.84,2.06 -0.46,-1.69"/>
    </edge>
    <edge id=":10046801544_4" function="internal">
        <lane id=":10046801544_4_0" index="0" speed="13.89" length="0.74" shape="-0.84,2.06 -0.90,1.32"/>
    </edge>
    <edge id=":10046801544_5" function="internal">
        <lane id=":10046801544_5_0" index="0" speed="3.65" length="2.34" shape="-0.84,2.06 -2.25,1.76 -2.91,1.16"/>
    </edge>
    <edge id=":10046801544_9" function="internal">
        <lane id=":10046801544_9_0" index="0" speed="3.65" length="2.34" shape="-2.91,1.16 -2.83,0.27 -2.01,-0.92"/>
    </edge>
    <edge id=":10046801544_6" function="internal">
        <lane id=":10046801544_6_0" index="0" speed="5.22" length="2.93" shape="0.89,-1.33 -2.01,-0.92"/>
    </edge>
    <edge id=":10046801544_7" function="internal">
        <lane id=":10046801544_7_0" index="0" speed="7.12" length="1.40" shape="0.89,-1.33 -0.46,-1.69"/>
    </edge>
    <edge id=":10046801544_8" function="internal">
        <lane id=":10046801544_8_0" index="0" speed="3.65" length="2.34" shape="0.89,-1.33 1.44,0.01 1.32,0.89"/>
    </edge>
    <edge id=":10046801544_10" function="internal">
        <lane id=":10046801544_10_0" index="0" speed="3.65" length="2.34" shape="1.32,0.89 0.55,1.33 -0.90,1.32"/>
    </edge>
    <edge id=":10046801554_0" function="internal">
        <lane id=":10046801554_0_0" index="0" speed="3.48" length="2.98" shape="-1.18,-1.05 1.62,-0.04"/>
    </edge>
    <edge id=":10046801554_1" function="internal">
        <lane id=":10046801554_1_0" index="0" speed="3.48" length="3.08" shape="-1.18,-1.05 0.45,1.56"/>
    </edge>
    <edge id=":10046801554_2" function="internal">
        <lane id=":10046801554_2_0" index="0" speed="3.24" length="1.20" shape="-1.18,-1.05 -0.28,-0.25"/>
    </edge>
    <edge id=":10046801554_9" function="internal">
        <lane id=":10046801554_9_0" index="0" speed="3.24" length="2.00" shape="-0.28,-0.25 1.21,1.07"/>
    </edge>
    <edge id=":10046801554_3" function="internal">
        <lane id=":10046801554_3_0" index="0" speed="3.63" length="2.30" shape="-0.07,-1.60 1.62,-0.04"/>
    </edge>
    <edge id=":10046801554_4" function="internal">
        <lane id=":10046801554_4_0" index="0" speed="3.44" length="2.96" shape="-0.07,-1.60 1.21,1.07"/>
    </edge>
    <edge id=":10046801554_5" function="internal">
        <lane id=":10046801554_5_0" index="0" speed="3.65" length="2.34" shape="-0.07,-1.60 1.24,-1.00 1.77,-0.28"/>
    </edge>
    <edge id=":10046801554_10" function="internal">
        <lane id=":10046801554_10_0" index="0" speed="3.65" length="2.34" shape="1.77,-0.28 1.50,0.57 0.45,1.56"/>
    </edge>
    <edge id=":10046801554_6" function="internal">
        <lane id=":10046801554_6_0" index="0" speed="3.48" length="2.98" shape="-1.58,0.06 1.21,1.07"/>
    </edge>
    <edge id=":10046801554_7" function="internal">
        <lane id=":10046801554_7_0" index="0" speed="3.74" length="2.53" shape="-1.58,0.06 0.45,1.56"/>
    </edge>
    <edge id=":10046801554_8" function="internal">
        <lane id=":10046801554_8_0" index="0" speed="3.24" length="3.20" shape="-1.58,0.06 1.62,-0.04"/>
    </edge>
    <edge id=":10123338300_0" function="internal">
        <lane id=":10123338300_0_0" index="0" speed="3.24" length="3.20" shape="0.14,1.62 -0.11,-1.57"/>
    </edge>
    <edge id=":10123338330_0" function="internal">
        <lane id=":10123338330_0_0" index="0" speed="3.48" length="1.05" shape="-0.93,2.49 -0.69,1.46"/>
    </edge>
    <edge id=":10123338330_1" function="internal">
        <lane id=":10123338330_1_0" index="0" speed="3.45" length="1.04" shape="-0.93,2.49 -1.21,1.49"/>
    </edge>
    <edge id=":10123338330_2" function="internal">
        <lane id=":10123338330_2_0" index="0" speed="3.65" length="2.34" shape="-0.93,2.49 -2.37,2.44 -3.13,1.97"/>
    </edge>
    <edge id=":10123338330_9" function="internal">
        <lane id=":10123338330_9_0" index="0" speed="3.45" length="1.39" shape="-1.21,1.49 -1.58,0.15"/>
    </edge>
    <edge id=":10123338330_10" function="internal">
        <lane id=":10123338330_10_0" index="0" speed="3.65" length="2.34" shape="-3.13,1.97 -3.21,1.08 -2.61,-0.23"/>
    </edge>
    <edge id=":10123338330_3" function="internal">
        <lane id=":10123338330_3_0" index="0" speed="4.17" length="4.22" shape="1.61,-0.10 -2.61,-0.23"/>
    </edge>
    <edge id=":10123338330_4" function="internal">
        <lane id=":10123338330_4_0" index="0" speed="3.56" length="2.78" shape="1.61,-0.10 -0.69,1.46"/>
    </edge>
    <edge id=":10123338330_5" function="internal">
        <lane id=":10123338330_5_0" index="0" speed="3.24" length="3.20" shape="1.61,-0.10 -1.58,0.15"/>
    </edge>
    <edge id=":10123338330_6" function="internal">
        <lane id=":10123338330_6_0" index="0" speed="3.56" length="2.78" shape="0.72,-1.41 -1.58,0.15"/>
    </edge>
    <edge id=":10123338330_7" function="internal">
        <lane id=":10123338330_7_0" index="0" speed="5.51" length="3.53" shape="0.72,-1.41 -2.61,-0.23"/>
    </edge>
    <edge id=":10123338330_8" function="internal">
        <lane id=":10123338330_8_0" index="0" speed="3.24" length="1.60" shape="0.72,-1.41 0.01,0.02"/>
    </edge>
    <edge id=":10123338330_11" function="internal">
        <lane id=":10123338330_11_0" index="0" speed="3.24" length="1.60" shape="0.01,0.02 -0.69,1.46"/>
    </edge>
    <edge id=":10123338334_0" function="internal">
        <lane id=":10123338334_0_0" index="0" speed="13.89" length="0.26" shape="1.61,0.13 1.57,0.39"/>
    </edge>
    <edge id=":10123338334_1" function="internal">
        <lane id=":10123338334_1_0" index="0" speed="5.05" length="1.04" shape="1.61,0.13 0.81,0.79"/>
    </edge>
    <edge id=":10123338334_2" function="internal">
        <lane id=":10123338334_2_0" index="0" speed="3.24" length="1.60" shape="1.61,0.13 0.01,0.02"/>
    </edge>
    <edge id=":10123338334_9" function="internal">
        <lane id=":10123338334_9_0" index="0" speed="5.05" length="2.15" shape="0.81,0.79 -0.85,2.15"/>
    </edge>
    <edge id=":10123338334_10" function="internal">
        <lane id=":10123338334_10_0" index="0" speed="3.24" length="1.60" shape="0.01,0.02 -1.58,-0.09"/>
    </edge>
    <edge id=":10123338334_3" function="internal">
        <lane id=":10123338334_3_0" index="0" speed="5.04" length="3.17" shape="0.87,-2.09 -1.58,-0.09"/>
    </edge>
    <edge id=":10123338334_4" function="internal">
        <lane id=":10123338334_4_0" index="0" speed="3.42" length="2.58" shape="0.87,-2.09 1.57,0.39"/>
    </edge>
    <edge id=":10123338334_5" function="internal">
        <lane id=":10123338334_5_0" index="0" speed="4.14" length="6.68" shape="0.87,-2.09 2.03,-0.39 2.13,0.89 1.17,1.73 -0.85,2.15"/>
    </edge>
    <edge id=":10123338334_6" function="internal">
        <lane id=":10123338334_6_0" index="0" speed="3.42" length="2.58" shape="-1.54,-0.34 -0.85,2.15"/>
    </edge>
    <edge id=":10123338334_7" function="internal">
        <lane id=":10123338334_7_0" index="0" speed="13.89" length="0.26" shape="-1.54,-0.34 -1.58,-0.09"/>
    </edge>
    <edge id=":10123338334_8" function="internal">
        <lane id=":10123338334_8_0" index="0" speed="3.24" length="1.60" shape="-1.54,-0.34 0.01,0.02"/>
    </edge>
    <edge id=":10123338334_11" function="internal">
        <lane id=":10123338334_11_0" index="0" speed="3.24" length="1.60" shape="0.01,0.02 1.57,0.39"/>
    </edge>
    <edge id=":10123338335_0" function="internal">
        <lane id=":10123338335_0_0" index="0" speed="4.69" length="3.14" shape="-1.58,0.15 0.69,-2.01"/>
    </edge>
    <edge id=":10123338335_1" function="internal">
        <lane id=":10123338335_1_0" index="0" speed="3.37" length="1.85" shape="-1.58,0.15 -1.29,-1.67"/>
    </edge>
    <edge id=":10123338335_2" function="internal">
        <lane id=":10123338335_2_0" index="0" speed="3.24" length="1.73" shape="-1.58,0.15 0.14,0.01"/>
    </edge>
    <edge id=":10123338335_9" function="internal">
        <lane id=":10123338335_9_0" index="0" speed="3.24" length="1.47" shape="0.14,0.01 1.61,-0.11"/>
    </edge>
    <edge id=":10123338335_3" function="internal">
        <lane id=":10123338335_3_0" index="0" speed="3.66" length="3.91" shape="-1.04,2.23 -1.29,-1.67"/>
    </edge>
    <edge id=":10123338335_4" function="internal">
        <lane id=":10123338335_4_0" index="0" speed="4.92" length="3.53" shape="-1.04,2.23 1.61,-0.11"/>
    </edge>
    <edge id=":10123338335_5" function="internal">
        <lane id=":10123338335_5_0" index="0" speed="4.14" length="3.34" shape="-1.04,2.23 -2.20,0.52 -2.29,-0.76"/>
    </edge>
    <edge id=":10123338335_10" function="internal">
        <lane id=":10123338335_10_0" index="0" speed="4.14" length="3.34" shape="-2.29,-0.76 -1.33,-1.60 0.69,-2.01"/>
    </edge>
    <edge id=":10123338335_6" function="internal">
        <lane id=":10123338335_6_0" index="0" speed="4.20" length="3.53" shape="-1.52,1.52 1.61,-0.11"/>
    </edge>
    <edge id=":10123338335_7" function="internal">
        <lane id=":10123338335_7_0" index="0" speed="4.63" length="7.43" shape="-1.52,1.52 -3.29,1.16 -3.51,0.45 -2.18,-0.61 0.69,-2.01"/>
    </edge>
    <edge id=":10123338335_8" function="internal">
        <lane id=":10123338335_8_0" index="0" speed="3.65" length="4.67" shape="-1.52,1.52 -2.66,0.63 -3.00,-0.19 -2.55,-0.96 -1.29,-1.67"/>
    </edge>
    <edge id=":10123338336_0" function="internal">
        <lane id=":10123338336_0_0" index="0" speed="6.05" length="3.06" shape="1.57,0.39 -0.76,2.38"/>
    </edge>
    <edge id=":10123338336_1" function="internal">
        <lane id=":10123338336_1_0" index="0" speed="4.39" length="1.64" shape="1.57,0.39 0.05,0.99"/>
    </edge>
    <edge id=":10123338336_2" function="internal">
        <lane id=":10123338336_2_0" index="0" speed="3.24" length="1.60" shape="1.57,0.39 0.01,0.02"/>
    </edge>
    <edge id=":10123338336_9" function="internal">
        <lane id=":10123338336_9_0" index="0" speed="4.39" length="1.47" shape="0.05,0.99 -1.32,1.53"/>
    </edge>
    <edge id=":10123338336_10" function="internal">
        <lane id=":10123338336_10_0" index="0" speed="3.24" length="1.60" shape="0.01,0.02 -1.54,-0.34"/>
    </edge>
    <edge id=":10123338336_3" function="internal">
        <lane id=":10123338336_3_0" index="0" speed="3.32" length="1.39" shape="-1.09,-1.66 -1.54,-0.34"/>
    </edge>
    <edge id=":10123338336_4" function="internal">
        <lane id=":10123338336_4_0" index="0" speed="4.79" length="7.60" shape="-1.09,-1.66 1.23,-1.24 2.07,-0.43 1.40,0.78 -0.76,2.38"/>
    </edge>
    <edge id=":10123338336_5" function="internal">
        <lane id=":10123338336_5_0" index="0" speed="3.65" length="4.67" shape="-1.09,-1.66 0.04,-0.78 0.39,0.05 -0.07,0.82 -1.32,1.53"/>
    </edge>
    <edge id=":10123338336_6" function="internal">
        <lane id=":10123338336_6_0" index="0" speed="3.12" length="2.18" shape="-2.44,-0.34 -1.32,1.53"/>
    </edge>
    <edge id=":10123338336_7" function="internal">
        <lane id=":10123338336_7_0" index="0" speed="13.89" length="0.90" shape="-2.44,-0.34 -1.54,-0.34"/>
    </edge>
    <edge id=":10123338336_8" function="internal">
        <lane id=":10123338336_8_0" index="0" speed="3.65" length="1.29" shape="-2.44,-0.34 -1.15,-0.29"/>
    </edge>
    <edge id=":10123338336_11" function="internal">
        <lane id=":10123338336_11_0" index="0" speed="3.65" length="3.38" shape="-1.15,-0.29 -1.00,-0.29 -0.24,0.18 -0.16,1.07 -0.76,2.38"/>
    </edge>
    <edge id=":10123338341_0" function="internal">
        <lane id=":10123338341_0_0" index="0" speed="13.89" length="0.15" shape="1.61,0.14 1.59,0.29"/>
    </edge>
    <edge id=":10123338341_1" function="internal">
        <lane id=":10123338341_1_0" index="0" speed="3.74" length="0.60" shape="1.61,0.14 1.16,0.54"/>
    </edge>
    <edge id=":10123338341_2" function="internal">
        <lane id=":10123338341_2_0" index="0" speed="3.24" length="1.60" shape="1.61,0.14 0.02,0.02"/>
    </edge>
    <edge id=":10123338341_9" function="internal">
        <lane id=":10123338341_9_0" index="0" speed="3.74" length="1.64" shape="1.16,0.54 -0.07,1.62"/>
    </edge>
    <edge id=":10123338341_10" function="internal">
        <lane id=":10123338341_10_0" index="0" speed="3.24" length="1.60" shape="0.02,0.02 -1.58,-0.10"/>
    </edge>
    <edge id=":10123338341_3" function="internal">
        <lane id=":10123338341_3_0" index="0" speed="3.74" length="2.24" shape="0.10,-1.58 -1.58,-0.10"/>
    </edge>
    <edge id=":10123338341_4" function="internal">
        <lane id=":10123338341_4_0" index="0" speed="3.69" length="2.39" shape="0.10,-1.58 1.59,0.29"/>
    </edge>
    <edge id=":10123338341_5" function="internal">
        <lane id=":10123338341_5_0" index="0" speed="3.24" length="3.20" shape="0.10,-1.58 -0.07,1.62"/>
    </edge>
    <edge id=":10123338341_6" function="internal">
        <lane id=":10123338341_6_0" index="0" speed="13.89" length="0.15" shape="-1.56,-0.25 -1.58,-0.10"/>
    </edge>
    <edge id=":10123338341_7" function="internal">
        <lane id=":10123338341_7_0" index="0" speed="3.69" length="2.39" shape="-1.56,-0.25 -0.07,1.62"/>
    </edge>
    <edge id=":10123338341_8" function="internal">
        <lane id=":10123338341_8_0" index="0" speed="3.24" length="1.60" shape="-1.56,-0.25 0.02,0.02"/>
    </edge>
    <edge id=":10123338341_11" function="internal">
        <lane id=":10123338341_11_0" index="0" speed="3.24" length="1.60" shape="0.02,0.02 1.59,0.29"/>
    </edge>
    <edge id=":10123338343_0" function="internal">
        <lane id=":10123338343_0_0" index="0" speed="13.89" length="0.10" shape="-0.07,1.62 -0.02,1.62"/>
    </edge>
    <edge id=":10123338343_1" function="internal">
        <lane id=":10123338343_1_0" index="0" speed="3.72" length="0.69" shape="-0.07,1.62 -0.52,1.10"/>
    </edge>
    <edge id=":10123338343_2" function="internal">
        <lane id=":10123338343_2_0" index="0" speed="3.74" length="2.22" shape="-0.07,1.62 1.61,0.16"/>
    </edge>
    <edge id=":10123338343_3" function="internal">
        <lane id=":10123338343_3_0" index="0" speed="3.24" length="1.60" shape="-0.07,1.62 0.02,0.02"/>
    </edge>
    <edge id=":10123338343_16" function="internal">
        <lane id=":10123338343_16_0" index="0" speed="3.72" length="1.61" shape="-0.52,1.10 -1.58,-0.11"/>
    </edge>
    <edge id=":10123338343_17" function="internal">
        <lane id=":10123338343_17_0" index="0" speed="3.24" length="1.60" shape="0.02,0.02 0.10,-1.58"/>
    </edge>
    <edge id=":10123338343_4" function="internal">
        <lane id=":10123338343_4_0" index="0" speed="3.72" length="2.30" shape="1.61,0.16 0.10,-1.58"/>
    </edge>
    <edge id=":10123338343_5" function="internal">
        <lane id=":10123338343_5_0" index="0" speed="13.89" length="0.10" shape="1.61,0.16 1.61,0.16"/>
    </edge>
    <edge id=":10123338343_6" function="internal">
        <lane id=":10123338343_6_0" index="0" speed="3.72" length="2.19" shape="1.61,0.16 -0.02,1.62"/>
    </edge>
    <edge id=":10123338343_7" function="internal">
        <lane id=":10123338343_7_0" index="0" speed="3.24" length="3.20" shape="1.61,0.16 -1.58,-0.11"/>
    </edge>
    <edge id=":10123338343_8" function="internal">
        <lane id=":10123338343_8_0" index="0" speed="3.76" length="2.25" shape="0.14,-1.57 -1.58,-0.11"/>
    </edge>
    <edge id=":10123338343_9" function="internal">
        <lane id=":10123338343_9_0" index="0" speed="13.89" length="0.10" shape="0.14,-1.57 0.10,-1.58"/>
    </edge>
    <edge id=":10123338343_10" function="internal">
        <lane id=":10123338343_10_0" index="0" speed="3.70" length="2.28" shape="0.14,-1.57 1.61,0.16"/>
    </edge>
    <edge id=":10123338343_11" function="internal">
        <lane id=":10123338343_11_0" index="0" speed="3.65" length="2.34" shape="0.14,-1.57 1.30,-0.71 1.65,0.11"/>
    </edge>
    <edge id=":10123338343_18" function="internal">
        <lane id=":10123338343_18_0" index="0" speed="3.65" length="2.34" shape="1.65,0.11 1.21,0.88 -0.02,1.62"/>
    </edge>
    <edge id=":10123338343_12" function="internal">
        <lane id=":10123338343_12_0" index="0" speed="3.73" length="2.33" shape="-1.58,-0.12 -0.02,1.62"/>
    </edge>
    <edge id=":10123338343_13" function="internal">
        <lane id=":10123338343_13_0" index="0" speed="13.89" length="0.10" shape="-1.58,-0.12 -1.58,-0.11"/>
    </edge>
    <edge id=":10123338343_14" function="internal">
        <lane id=":10123338343_14_0" index="0" speed="3.74" length="2.22" shape="-1.58,-0.12 0.10,-1.58"/>
    </edge>
    <edge id=":10123338343_15" function="internal">
        <lane id=":10123338343_15_0" index="0" speed="3.24" length="3.20" shape="-1.58,-0.12 1.61,0.16"/>
    </edge>
    <edge id=":10123338345_0" function="internal">
        <lane id=":10123338345_0_0" index="0" speed="3.79" length="2.37" shape="-0.22,1.61 1.61,0.11"/>
    </edge>
    <edge id=":10123338345_1" function="internal">
        <lane id=":10123338345_1_0" index="0" speed="3.66" length="2.17" shape="-0.22,1.61 -1.58,-0.07"/>
    </edge>
    <edge id=":10123338345_2" function="internal">
        <lane id=":10123338345_2_0" index="0" speed="3.65" length="4.67" shape="-0.22,1.61 -1.38,0.75 -1.73,-0.07 -1.29,-0.85 -0.05,-1.58"/>
    </edge>
    <edge id=":10123338345_3" function="internal">
        <lane id=":10123338345_3_0" index="0" speed="13.89" length="0.10" shape="-1.58,-0.06 -1.58,-0.07"/>
    </edge>
    <edge id=":10123338345_4" function="internal">
        <lane id=":10123338345_4_0" index="0" speed="3.67" length="0.55" shape="-1.58,-0.06 -1.19,-0.45"/>
    </edge>
    <edge id=":10123338345_5" function="internal">
        <lane id=":10123338345_5_0" index="0" speed="3.24" length="1.60" shape="-1.58,-0.06 0.01,0.02"/>
    </edge>
    <edge id=":10123338345_9" function="internal">
        <lane id=":10123338345_9_0" index="0" speed="3.67" length="1.61" shape="-1.19,-0.45 -0.05,-1.58"/>
    </edge>
    <edge id=":10123338345_10" function="internal">
        <lane id=":10123338345_10_0" index="0" speed="3.24" length="1.60" shape="0.01,0.02 1.61,0.11"/>
    </edge>
    <edge id=":10123338345_6" function="internal">
        <lane id=":10123338345_6_0" index="0" speed="3.78" length="2.38" shape="1.61,0.11 -0.05,-1.58"/>
    </edge>
    <edge id=":10123338345_7" function="internal">
        <lane id=":10123338345_7_0" index="0" speed="13.89" length="0.10" shape="1.61,0.11 1.61,0.11"/>
    </edge>
    <edge id=":10123338345_8" function="internal">
        <lane id=":10123338345_8_0" index="0" speed="3.24" length="1.60" shape="1.61,0.11 0.01,0.02"/>
    </edge>
    <edge id=":10123338345_11" function="internal">
        <lane id=":10123338345_11_0" index="0" speed="3.24" length="1.60" shape="0.01,0.02 -1.58,-0.07"/>
    </edge>
    <edge id=":10123338346_0" function="internal">
        <lane id=":10123338346_0_0" index="0" speed="13.89" length="0.21" shape="1.61,-0.06 1.61,0.14"/>
    </edge>
    <edge id=":10123338346_1" function="internal">
        <lane id=":10123338346_1_0" index="0" speed="3.70" length="0.71" shape="1.61,-0.06 1.12,0.44"/>
    </edge>
    <edge id=":10123338346_2" function="internal">
        <lane id=":10123338346_2_0" index="0" speed="3.24" length="1.60" shape="1.61,-0.06 0.02,0.02"/>
    </edge>
    <edge id=":10123338346_9" function="internal">
        <lane id=":10123338346_9_0" index="0" speed="3.70" length="1.66" shape="1.12,0.44 -0.05,1.62"/>
    </edge>
    <edge id=":10123338346_10" function="internal">
        <lane id=":10123338346_10_0" index="0" speed="3.24" length="1.60" shape="0.02,0.02 -1.58,0.11"/>
    </edge>
    <edge id=":10123338346_3" function="internal">
        <lane id=":10123338346_3_0" index="0" speed="3.70" length="2.37" shape="0.09,-1.58 -1.58,0.11"/>
    </edge>
    <edge id=":10123338346_4" function="internal">
        <lane id=":10123338346_4_0" index="0" speed="3.72" length="2.30" shape="0.09,-1.58 1.61,0.14"/>
    </edge>
    <edge id=":10123338346_5" function="internal">
        <lane id=":10123338346_5_0" index="0" speed="3.24" length="3.20" shape="0.09,-1.58 -0.05,1.62"/>
    </edge>
    <edge id=":10123338346_6" function="internal">
        <lane id=":10123338346_6_0" index="0" speed="3.72" length="2.30" shape="-1.58,-0.10 -0.05,1.62"/>
    </edge>
    <edge id=":10123338346_7" function="internal">
        <lane id=":10123338346_7_0" index="0" speed="13.89" length="0.21" shape="-1.58,-0.10 -1.58,0.11"/>
    </edge>
    <edge id=":10123338346_8" function="internal">
        <lane id=":10123338346_8_0" index="0" speed="3.24" length="1.60" shape="-1.58,-0.10 0.02,0.02"/>
    </edge>
    <edge id=":10123338346_11" function="internal">
        <lane id=":10123338346_11_0" index="0" speed="3.24" length="1.60" shape="0.02,0.02 1.61,0.14"/>
    </edge>
    <edge id=":10123338348_0" function="internal">
        <lane id=":10123338348_0_0" index="0" speed="13.89" length="0.10" shape="-0.06,1.62 -0.02,1.62"/>
    </edge>
    <edge id=":10123338348_1" function="internal">
        <lane id=":10123338348_1_0" index="0" speed="3.72" length="0.68" shape="-0.06,1.62 -0.51,1.11"/>
    </edge>
    <edge id=":10123338348_2" function="internal">
        <lane id=":10123338348_2_0" index="0" speed="3.74" length="2.22" shape="-0.06,1.62 1.61,0.16"/>
    </edge>
    <edge id=":10123338348_3" function="internal">
        <lane id=":10123338348_3_0" index="0" speed="3.24" length="1.60" shape="-0.06,1.62 0.02,0.02"/>
    </edge>
    <edge id=":10123338348_16" function="internal">
        <lane id=":10123338348_16_0" index="0" speed="3.72" length="1.62" shape="-0.51,1.11 -1.58,-0.10"/>
    </edge>
    <edge id=":10123338348_17" function="internal">
        <lane id=":10123338348_17_0" index="0" speed="3.24" length="1.60" shape="0.02,0.02 0.09,-1.58"/>
    </edge>
    <edge id=":10123338348_4" function="internal">
        <lane id=":10123338348_4_0" index="0" speed="3.72" length="2.30" shape="1.61,0.15 0.09,-1.58"/>
    </edge>
    <edge id=":10123338348_5" function="internal">
        <lane id=":10123338348_5_0" index="0" speed="13.89" length="0.10" shape="1.61,0.15 1.61,0.16"/>
    </edge>
    <edge id=":10123338348_6" function="internal">
        <lane id=":10123338348_6_0" index="0" speed="3.72" length="2.20" shape="1.61,0.15 -0.02,1.62"/>
    </edge>
    <edge id=":10123338348_7" function="internal">
        <lane id=":10123338348_7_0" index="0" speed="3.24" length="3.20" shape="1.61,0.15 -1.58,-0.10"/>
    </edge>
    <edge id=":10123338348_8" function="internal">
        <lane id=":10123338348_8_0" index="0" speed="3.76" length="2.27" shape="0.15,-1.57 -1.58,-0.10"/>
    </edge>
    <edge id=":10123338348_9" function="internal">
        <lane id=":10123338348_9_0" index="0" speed="13.89" length="0.10" shape="0.15,-1.57 0.09,-1.58"/>
    </edge>
    <edge id=":10123338348_10" function="internal">
        <lane id=":10123338348_10_0" index="0" speed="3.70" length="0.68" shape="0.15,-1.57 0.59,-1.05"/>
    </edge>
    <edge id=":10123338348_11" function="internal">
        <lane id=":10123338348_11_0" index="0" speed="3.65" length="2.34" shape="0.15,-1.57 1.30,-0.71 1.66,0.11"/>
    </edge>
    <edge id=":10123338348_18" function="internal">
        <lane id=":10123338348_18_0" index="0" speed="3.70" length="1.58" shape="0.59,-1.05 1.61,0.16"/>
    </edge>
    <edge id=":10123338348_19" function="internal">
        <lane id=":10123338348_19_0" index="0" speed="3.65" length="2.34" shape="1.66,0.11 1.22,0.89 -0.02,1.62"/>
    </edge>
    <edge id=":10123338348_12" function="internal">
        <lane id=":10123338348_12_0" index="0" speed="3.73" length="2.33" shape="-1.58,-0.11 -0.02,1.62"/>
    </edge>
    <edge id=":10123338348_13" function="internal">
        <lane id=":10123338348_13_0" index="0" speed="13.89" length="0.10" shape="-1.58,-0.11 -1.58,-0.10"/>
    </edge>
    <edge id=":10123338348_14" function="internal">
        <lane id=":10123338348_14_0" index="0" speed="3.74" length="2.22" shape="-1.58,-0.11 0.09,-1.58"/>
    </edge>
    <edge id=":10123338348_15" function="internal">
        <lane id=":10123338348_15_0" index="0" speed="3.24" length="3.20" shape="-1.58,-0.11 1.61,0.16"/>
    </edge>
    <edge id=":10123338350_0" function="internal">
        <lane id=":10123338350_0_0" index="0" speed="3.82" length="2.32" shape="-0.21,1.61 1.61,0.17"/>
    </edge>
    <edge id=":10123338350_1" function="internal">
        <lane id=":10123338350_1_0" index="0" speed="13.89" length="0.13" shape="-0.21,1.61 -0.08,1.62"/>
    </edge>
    <edge id=":10123338350_2" function="internal">
        <lane id=":10123338350_2_0" index="0" speed="3.66" length="2.21" shape="-0.21,1.61 -1.58,-0.12"/>
    </edge>
    <edge id=":10123338350_3" function="internal">
        <lane id=":10123338350_3_0" index="0" speed="3.65" length="4.67" shape="-0.21,1.61 -1.37,0.76 -1.74,-0.05 -1.31,-0.83 -0.08,-1.58"/>
    </edge>
    <edge id=":10123338350_4" function="internal">
        <lane id=":10123338350_4_0" index="0" speed="3.78" length="2.42" shape="1.61,0.16 -0.08,-1.58"/>
    </edge>
    <edge id=":10123338350_5" function="internal">
        <lane id=":10123338350_5_0" index="0" speed="13.89" length="0.10" shape="1.61,0.16 1.61,0.17"/>
    </edge>
    <edge id=":10123338350_6" function="internal">
        <lane id=":10123338350_6_0" index="0" speed="3.74" length="0.63" shape="1.61,0.16 1.13,0.57"/>
    </edge>
    <edge id=":10123338350_7" function="internal">
        <lane id=":10123338350_7_0" index="0" speed="3.24" length="1.82" shape="1.61,0.16 -0.20,0.00"/>
    </edge>
    <edge id=":10123338350_16" function="internal">
        <lane id=":10123338350_16_0" index="0" speed="3.74" length="1.60" shape="1.13,0.57 -0.08,1.62"/>
    </edge>
    <edge id=":10123338350_17" function="internal">
        <lane id=":10123338350_17_0" index="0" speed="3.24" length="1.38" shape="-0.20,0.00 -1.58,-0.12"/>
    </edge>
    <edge id=":10123338350_8" function="internal">
        <lane id=":10123338350_8_0" index="0" speed="13.89" length="0.19" shape="0.11,-1.57 -0.08,-1.58"/>
    </edge>
    <edge id=":10123338350_9" function="internal">
        <lane id=":10123338350_9_0" index="0" speed="3.72" length="2.30" shape="0.11,-1.57 1.61,0.17"/>
    </edge>
    <edge id=":10123338350_10" function="internal">
        <lane id=":10123338350_10_0" index="0" speed="3.74" length="2.23" shape="0.11,-1.57 -1.58,-0.12"/>
    </edge>
    <edge id=":10123338350_11" function="internal">
        <lane id=":10123338350_11_0" index="0" speed="3.24" length="3.20" shape="0.11,-1.57 -0.08,1.62"/>
    </edge>
    <edge id=":10123338350_12" function="internal">
        <lane id=":10123338350_12_0" index="0" speed="3.72" length="2.30" shape="-1.58,-0.13 -0.08,1.62"/>
    </edge>
    <edge id=":10123338350_13" function="internal">
        <lane id=":10123338350_13_0" index="0" speed="13.89" length="0.10" shape="-1.58,-0.13 -1.58,-0.12"/>
    </edge>
    <edge id=":10123338350_14" function="internal">
        <lane id=":10123338350_14_0" index="0" speed="3.68" length="0.49" shape="-1.58,-0.13 -1.23,-0.47"/>
    </edge>
    <edge id=":10123338350_15" function="internal">
        <lane id=":10123338350_15_0" index="0" speed="3.24" length="1.60" shape="-1.58,-0.13 0.02,0.02"/>
    </edge>
    <edge id=":10123338350_18" function="internal">
        <lane id=":10123338350_18_0" index="0" speed="3.68" length="1.60" shape="-1.23,-0.47 -0.08,-1.58"/>
    </edge>
    <edge id=":10123338350_19" function="internal">
        <lane id=":10123338350_19_0" index="0" speed="3.24" length="1.60" shape="0.02,0.02 1.61,0.17"/>
    </edge>
    <edge id=":10123338351_0" function="internal">
        <lane id=":10123338351_0_0" index="0" speed="3.24" length="3.20" shape="-1.55,-0.29 1.58,0.33"/>
    </edge>
    <edge id=":10123338352_0" function="internal">
        <lane id=":10123338352_0_0" index="0" speed="3.75" length="2.18" shape="-0.06,1.62 1.60,0.21"/>
    </edge>
    <edge id=":10123338352_1" function="internal">
        <lane id=":10123338352_1_0" index="0" speed="13.89" length="0.10" shape="-0.06,1.62 -0.06,1.62"/>
    </edge>
    <edge id=":10123338352_2" function="internal">
        <lane id=":10123338352_2_0" index="0" speed="3.71" length="0.73" shape="-0.06,1.62 -0.54,1.07"/>
    </edge>
    <edge id=":10123338352_3" function="internal">