<?xml version='1.0' encoding='utf-8'?>
<nodes><node id="1" x="126.8182583" y="37.2098418" /><node id="2" x="126.8182855" y="37.20985364" /><node id="3" x="126.8183845" y="37.2098967" /><node id="4" x="126.8184834" y="37.20993976" /><node id="5" x="126.8185824" y="37.20998282" /><node id="6" x="126.8186813" y="37.21002588" /><node id="7" x="126.8187803" y="37.21006893" /><node id="8" x="126.8188792" y="37.21011207" /><node id="9" x="126.8189781" y="37.21015523" /><node id="10" x="126.8190769" y="37.2101984" /><node id="11" x="126.8191758" y="37.21024157" /><node id="12" x="126.8192747" y="37.21028473" /><node id="13" x="126.8193736" y="37.2103279" /><node id="14" x="126.8194725" y="37.21037107" /><node id="15" x="126.8195713" y="37.21041424" /><node id="16" x="126.8196702" y="37.21045741" /><node id="17" x="126.8197691" y="37.21050057" /><node id="18" x="126.819868" y="37.21054374" /><node id="19" x="126.8199669" y="37.21058691" /><node id="20" x="126.8200657" y="37.21063008" /><node id="21" x="126.8201646" y="37.21067325" /><node id="22" x="126.8202635" y="37.21071641" /><node id="23" x="126.8203624" y="37.21075958" /><node id="24" x="126.8204639" y="37.21079802" /><node id="25" x="126.8205697" y="37.21082893" /><node id="26" x="126.8206755" y="37.21085983" /><node id="27" x="126.8207814" y="37.21089074" /><node id="28" x="126.8208872" y="37.21092165" /><node id="29" x="126.820993" y="37.21095255" /><node id="30" x="126.8210988" y="37.21098346" /><node id="31" x="126.8212046" y="37.21101437" /><node id="32" x="126.8213104" y="37.21104527" /><node id="33" x="126.8214163" y="37.21107618" /><node id="34" x="126.8215221" y="37.21110708" /><node id="35" x="126.8216224" y="37.21114749" /><node id="36" x="126.82172" y="37.21119237" /><node id="37" x="126.8218177" y="37.21123725" /><node id="38" x="126.8219154" y="37.21128214" /><node id="39" x="126.8220131" y="37.21132702" /><node id="40" x="126.8221142" y="37.21136676" /><node id="41" x="126.8222154" y="37.21140624" /><node id="42" x="126.8223167" y="37.21144572" /><node id="43" x="126.8224179" y="37.2114852" /><node id="44" x="126.8225192" y="37.21152468" /><node id="45" x="126.8226205" y="37.21156416" /><node id="46" x="126.8227217" y="37.21160364" /><node id="47" x="126.822823" y="37.21164312" /><node id="48" x="126.8229242" y="37.2116826" /><node id="49" x="126.8230255" y="37.21172208" /><node id="50" x="126.8231268" y="37.21176156" /><node id="51" x="126.823228" y="37.21180104" /><node id="52" x="126.8233281" y="37.2118423" /><node id="53" x="126.8234275" y="37.21188474" /><node id="54" x="126.8235269" y="37.21192717" /><node id="55" x="126.8236263" y="37.21196961" /><node id="56" x="126.8237256" y="37.21201205" /><node id="57" x="126.823825" y="37.21205448" /><node id="58" x="126.8239244" y="37.21209692" /><node id="59" x="126.8240238" y="37.21213936" /><node id="60" x="126.8241231" y="37.2121818" /><node id="61" x="126.8242225" y="37.21222423" /><node id="62" x="126.8243219" y="37.21226667" /><node id="63" x="126.8245135" y="37.21234849" /><node id="64" x="126.8245246" y="37.21235377" /><node id="65" x="126.8246167" y="37.21239857" /><node id="66" x="126.824713" y="37.21244538" /><node id="67" x="126.8248092" y="37.2124922" /><node id="68" x="126.8249055" y="37.21253901" /><node id="69" x="126.8250028" y="37.21258428" /><node id="70" x="126.8251037" y="37.21262443" /><node id="71" x="126.8252045" y="37.21266459" /><node id="72" x="126.8253049" y="37.21270541" /><node id="73" x="126.8254034" y="37.21274922" /><node id="74" x="126.8255018" y="37.21279303" /><node id="75" x="126.8256002" y="37.21283683" /><node id="76" x="126.8256987" y="37.21288064" /><node id="77" x="126.8257971" y="37.21292444" /><node id="78" x="126.8258956" y="37.21296825" /><node id="79" x="126.825994" y="37.21301206" /><node id="80" x="126.8260924" y="37.21305586" /><node id="81" x="126.8261909" y="37.21309967" /><node id="82" x="126.8262893" y="37.21314347" /><node id="83" x="126.8263878" y="37.21318728" /><node id="84" x="126.8264862" y="37.21323108" /><node id="85" x="126.8265847" y="37.21327489" /><node id="86" x="126.8266831" y="37.2133187" /><node id="87" x="126.8267815" y="37.2133625" /><node id="88" x="126.82688" y="37.21340631" /><node id="89" x="126.8269784" y="37.21345011" /><node id="90" x="126.8270769" y="37.21349393" /><node id="91" x="126.8271753" y="37.21353774" /><node id="92" x="126.8272737" y="37.21358155" /><node id="93" x="126.8273722" y="37.21362537" /><node id="94" x="126.8274706" y="37.21366918" /><node id="95" x="126.8275677" y="37.21371489" /><node id="96" x="126.8276647" y="37.21376074" /><node id="97" x="126.8277616" y="37.2138066" /><node id="98" x="126.8278586" y="37.21385246" /><node id="99" x="126.8279556" y="37.21389831" /><node id="100" x="126.8280526" y="37.21394417" /><node id="101" x="126.8281495" y="37.21399003" /><node id="102" x="126.8282465" y="37.21403588" /><node id="103" x="126.8283435" y="37.21408174" /><node id="104" x="126.8284405" y="37.2141276" /><node id="105" x="126.8285374" y="37.21417345" /><node id="106" x="126.8286344" y="37.2142193" /><node id="107" x="126.8287314" y="37.21426515" /><node id="108" x="126.8288271" y="37.21431272" /><node id="109" x="126.8289224" y="37.21436075" /><node id="110" x="126.8290177" y="37.21440878" /><node id="111" x="126.829113" y="37.21445681" /><node id="112" x="126.8292085" y="37.21450455" /><node id="113" x="126.8293047" y="37.21455148" /><node id="114" x="126.8294009" y="37.21459841" /><node id="115" x="126.8294962" y="37.21464636" /><node id="116" x="126.8295908" y="37.21469536" /><node id="117" x="126.8296853" y="37.21474436" /><node id="118" x="126.8297798" y="37.21479337" /><node id="119" x="126.8298744" y="37.21484237" /><node id="120" x="126.8299694" y="37.21489075" /><node id="121" x="126.8300648" y="37.21493864" /><node id="122" x="126.8301603" y="37.21498653" /><node id="123" x="126.8302557" y="37.21503442" /><node id="124" x="126.8303511" y="37.21508231" /><node id="125" x="126.8304465" y="37.2151302" /><node id="126" x="126.830542" y="37.21517809" /><node id="127" x="126.8306374" y="37.21522598" /><node id="128" x="126.8307328" y="37.21527387" /><node id="129" x="126.8308282" y="37.21532176" /><node id="130" x="126.8309237" y="37.21536965" /><node id="131" x="126.8310191" y="37.21541754" /><node id="132" x="126.8311145" y="37.21546543" /><node id="133" x="126.8312099" y="37.21551332" /><node id="134" x="126.8313054" y="37.21556121" /><node id="135" x="126.8314003" y="37.21560968" /><node id="136" x="126.831495" y="37.21565853" /><node id="137" x="126.8315897" y="37.21570738" /><node id="138" x="126.8316843" y="37.21575623" /><node id="139" x="126.831779" y="37.21580508" /><node id="140" x="126.8318737" y="37.21585392" /><node id="141" x="126.8319678" y="37.21590339" /><node id="142" x="126.8320617" y="37.21595316" /><node id="143" x="126.8321576" y="37.21600045" /><node id="144" x="126.8322541" y="37.21604699" /><node id="145" x="126.8323505" y="37.21609353" /><node id="146" x="126.8323689" y="37.21601717" /><node id="147" x="126.8323788" y="37.21592742" /><node id="148" x="126.8323887" y="37.21583766" /><node id="149" x="126.8323986" y="37.21574791" /><node id="150" x="126.8324085" y="37.21565816" /><node id="151" x="126.8324184" y="37.21556841" /><node id="152" x="126.8324283" y="37.21547866" /><node id="153" x="126.8324036" y="37.21551658" /><node id="154" x="126.8323479" y="37.21559362" /><node id="155" x="126.8322615" y="37.21564828" /><node id="156" x="126.8321541" y="37.2156469" /><node id="157" x="126.8321157" y="37.21556957" /><node id="158" x="126.8321196" y="37.21547952" /><node id="159" x="126.8321234" y="37.21538947" /><node id="160" x="126.8321296" y="37.21529952" /><node id="161" x="126.8321375" y="37.21520964" /><node id="162" x="126.8321453" y="37.21511976" /><node id="163" x="126.8321531" y="37.21502988" /><node id="164" x="126.832161" y="37.21494" /><node id="165" x="126.8321688" y="37.21485011" /><node id="166" x="126.8321767" y="37.21476023" /><node id="167" x="126.8321845" y="37.21467035" /><node id="168" x="126.8321923" y="37.21458047" /><node id="169" x="126.8322002" y="37.21449059" /><node id="170" x="126.832208" y="37.21440071" /><node id="171" x="126.8322158" y="37.21431082" /><node id="172" x="126.8322237" y="37.21422094" /><node id="173" x="126.8322315" y="37.21413106" /><node id="174" x="126.8322393" y="37.21404118" /><node id="175" x="126.8322472" y="37.2139513" /><node id="176" x="126.832255" y="37.21386142" /><node id="177" x="126.8322628" y="37.21377153" /><node id="178" x="126.8322707" y="37.21368165" /><node id="179" x="126.8322785" y="37.21359177" /><node id="180" x="126.8322864" y="37.21350189" /><node id="181" x="126.8322942" y="37.21341201" /><node id="182" x="126.832302" y="37.21332213" /><node id="183" x="126.8323099" y="37.21323224" /><node id="184" x="126.8323177" y="37.21314236" /><node id="185" x="126.8323255" y="37.21305248" /><node id="186" x="126.8323334" y="37.2129626" /><node id="187" x="126.8323412" y="37.21287272" /><node id="188" x="126.832349" y="37.21278283" /><node id="189" x="126.8323567" y="37.21269294" /><node id="190" x="126.8323644" y="37.21260305" /><node id="191" x="126.832372" y="37.21251316" /><node id="192" x="126.8323938" y="37.21242541" /><node id="193" x="126.832428" y="37.21233958" /><node id="194" x="126.8324623" y="37.21225375" /><node id="195" x="126.8324965" y="37.21216792" /><node id="196" x="126.8325308" y="37.21208209" /><node id="197" x="126.8325442" y="37.21199307" /><node id="198" x="126.8325518" y="37.21190318" /><node id="199" x="126.8325595" y="37.21181329" /><node id="200" x="126.8325671" y="37.21172339" /><node id="201" x="126.8325747" y="37.2116335" /><node id="202" x="126.8325823" y="37.21154361" /><node id="203" x="126.83259" y="37.21145371" /><node id="204" x="126.8325975" y="37.21136382" /><node id="205" x="126.8326034" y="37.21127384" /><node id="206" x="126.8326092" y="37.21118386" /><node id="207" x="126.8326151" y="37.21109388" /><node id="208" x="126.8326209" y="37.2110039" /><node id="209" x="126.8326268" y="37.21091393" /><node id="210" x="126.8326327" y="37.21082395" /><node id="211" x="126.8326385" y="37.21073397" /><node id="212" x="126.832646" y="37.21064407" /><node id="213" x="126.8326539" y="37.21055419" /><node id="214" x="126.8326617" y="37.21046431" /><node id="215" x="126.832672" y="37.21037459" /><node id="216" x="126.8326826" y="37.21028489" /><node id="217" x="126.8326932" y="37.21019519" /><node id="218" x="126.8327048" y="37.21010558" /><node id="219" x="126.8327177" y="37.21001606" /><node id="220" x="126.8327306" y="37.20992655" /><node id="221" x="126.8327434" y="37.20983704" /><node id="222" x="126.832753" y="37.20977037" /><node id="223" x="126.8327393" y="37.20965806" /><node id="224" x="126.8327183" y="37.20956953" /><node id="225" x="126.8326922" y="37.20948205" /><node id="226" x="126.8326392" y="37.2094037" /><node id="227" x="126.832561" y="37.20933925" /><node id="228" x="126.8324729" y="37.20928313" /><node id="229" x="126.8323771" y="37.20923579" /><node id="230" x="126.8323147" y="37.20920557" /><node id="231" x="126.8324644" y="37.20922836" /><node id="232" x="126.832575" y="37.20924521" /><node id="233" x="126.8326857" y="37.20926206" /><node id="234" x="126.8327963" y="37.20927892" /><node id="235" x="126.8328349" y="37.20933663" /><node id="236" x="126.8328181" y="37.20942572" /><node id="237" x="126.8328012" y="37.20951481" /><node id="238" x="126.8327844" y="37.2096039" /><node id="239" x="126.8327676" y="37.20969299" /><node id="240" x="126.8182437" y="37.20981968" /><node id="241" x="126.8182906" y="37.20972487" /><node id="242" x="126.818332" y="37.20964107" /><node id="243" x="126.8183733" y="37.20955727" /><node id="244" x="126.8184147" y="37.20947347" /><node id="245" x="126.8184528" y="37.2093887" /><node id="246" x="126.818489" y="37.20930337" /><node id="247" x="126.8185251" y="37.20921804" /><node id="248" x="126.8185613" y="37.20913272" /><node id="249" x="126.8185975" y="37.20904739" /><node id="250" x="126.8186337" y="37.20896206" /><node id="251" x="126.81867" y="37.20887679" /><node id="252" x="126.8187066" y="37.20879155" /><node id="253" x="126.8187431" y="37.20870631" /><node id="254" x="126.8187796" y="37.20862107" /><node id="255" x="126.8188161" y="37.20853584" /><node id="256" x="126.8188526" y="37.2084506" /><node id="257" x="126.8188891" y="37.20836536" /><node id="258" x="126.8189256" y="37.20828012" /><node id="259" x="126.8189621" y="37.20819488" /><node id="260" x="126.8189986" y="37.20810965" /><node id="261" x="126.8190351" y="37.20802441" /><node id="262" x="126.8190852" y="37.20794414" /><node id="263" x="126.8191292" y="37.20786142" /><node id="264" x="126.8191698" y="37.20777737" /><node id="265" x="126.8192104" y="37.20769331" /><node id="266" x="126.819251" y="37.20760926" /><node id="267" x="126.8192921" y="37.20752538" /><node id="268" x="126.8193361" y="37.20744244" /><node id="269" x="126.8193801" y="37.20735951" /><node id="270" x="126.8194242" y="37.20727658" /><node id="271" x="126.8194682" y="37.20719365" /><node id="272" x="126.8195161" y="37.20711213" /><node id="273" x="126.8195661" y="37.20703141" /><node id="274" x="126.8196161" y="37.20695068" /><node id="275" x="126.8196661" y="37.20686995" /><node id="276" x="126.8197201" y="37.20679088" /><node id="277" x="126.8197748" y="37.20671211" /><node id="278" x="126.8198295" y="37.20663335" /><node id="279" x="126.8198842" y="37.20655458" /><node id="280" x="126.8199435" y="37.20647806" /><node id="281" x="126.8200065" y="37.20640337" /><node id="282" x="126.8200694" y="37.20632868" /><node id="283" x="126.8201324" y="37.20625399" /><node id="284" x="126.8201954" y="37.20617929" /><node id="285" x="126.8202584" y="37.2061046" /><node id="286" x="126.8203217" y="37.20603007" /><node id="287" x="126.8203907" y="37.20595887" /><node id="288" x="126.8204598" y="37.20588768" /><node id="289" x="126.8205288" y="37.20581648" /><node id="290" x="126.8205978" y="37.20574529" /><node id="291" x="126.8206669" y="37.20567409" /><node id="292" x="126.8207359" y="37.2056029" /><node id="293" x="126.820805" y="37.2055317" /><node id="294" x="126.820874" y="37.20546051" /><node id="295" x="126.820943" y="37.20538931" /><node id="296" x="126.8210127" y="37.20531851" /><node id="297" x="126.8210861" y="37.20525017" /><node id="298" x="126.8211595" y="37.20518184" /><node id="299" x="126.8212329" y="37.2051135" /><node id="300" x="126.8213063" y="37.20504516" /><node id="301" x="126.8213797" y="37.20497682" /><node id="302" x="126.8214531" y="37.20490849" /><node id="303" x="126.8215265" y="37.20484015" /><node id="304" x="126.8215999" y="37.20477181" /><node id="305" x="126.8216733" y="37.20470347" /><node id="306" x="126.8217468" y="37.20463514" /><node id="307" x="126.8218202" y="37.2045668" /><node id="308" x="126.8218936" y="37.20449846" /><node id="309" x="126.821967" y="37.20443013" /><node id="310" x="126.8220404" y="37.20436179" /><node id="311" x="126.8221138" y="37.20429346" /><node id="312" x="126.8221872" y="37.20422513" /><node id="313" x="126.8222606" y="37.20415679" /><node id="314" x="126.8223317" y="37.2040869" /><node id="315" x="126.8224021" y="37.20401655" /><node id="316" x="126.8224725" y="37.20394621" /><node id="317" x="126.8225742" y="37.20384456" /><node id="318" x="126.8225508" y="37.20389844" /><node id="319" x="126.8224982" y="37.20395093" /><node id="320" x="126.8224279" y="37.20402127" /><node id="321" x="126.8223575" y="37.20409162" /><node id="322" x="126.8222867" y="37.20416172" /><node id="323" x="126.8222133" y="37.20423005" /><node id="324" x="126.8221399" y="37.20429838" /><node id="325" x="126.8220665" y="37.20436672" /><node id="326" x="126.8219931" y="37.20443505" /><node id="327" x="126.8219196" y="37.20450338" /><node id="328" x="126.8218462" y="37.20457172" /><node id="329" x="126.8217728" y="37.20464006" /><node id="330" x="126.8216994" y="37.2047084" /><node id="331" x="126.821626" y="37.20477673" /><node id="332" x="126.8215526" y="37.20484507" /><node id="333" x="126.8214792" y="37.20491341" /><node id="334" x="126.8214058" y="37.20498175" /><node id="335" x="126.8213324" y="37.20505008" /><node id="336" x="126.821259" y="37.20511842" /><node id="337" x="126.8211855" y="37.20518676" /><node id="338" x="126.8211121" y="37.2052551" /><node id="339" x="126.8210387" y="37.20532343" /><node id="340" x="126.8209686" y="37.20539394" /><node id="341" x="126.8208996" y="37.20546514" /><node id="342" x="126.8208306" y="37.20553633" /><node id="343" x="126.8207615" y="37.20560753" /><node id="344" x="126.8206925" y="37.20567872" /><node id="345" x="126.8206235" y="37.20574992" /><node id="346" x="126.8205544" y="37.20582111" /><node id="347" x="126.8204854" y="37.20589231" /><node id="348" x="126.8204164" y="37.2059635" /><node id="349" x="126.8203473" y="37.2060347" /><node id="350" x="126.8202834" y="37.20610888" /><node id="351" x="126.8202205" y="37.20618357" /><node id="352" x="126.8201575" y="37.20625826" /><node id="353" x="126.8200945" y="37.20633296" /><node id="354" x="126.8200315" y="37.20640765" /><node id="355" x="126.8199685" y="37.20648234" /><node id="356" x="126.8199084" y="37.20655844" /><node id="357" x="126.8198537" y="37.20663721" /><node id="358" x="126.819799" y="37.20671598" /><node id="359" x="126.8197443" y="37.20679474" /><node id="360" x="126.8196898" y="37.20687362" /><node id="361" x="126.8196398" y="37.20695435" /><node id="362" x="126.8195898" y="37.20703507" /><node id="363" x="126.8195398" y="37.2071158" /><node id="364" x="126.8194913" y="37.20719709" /><node id="365" x="126.8194472" y="37.20728002" /><node id="366" x="126.8194032" y="37.20736295" /><node id="367" x="126.8193592" y="37.20744588" /><node id="368" x="126.8193152" y="37.20752882" /><node id="369" x="126.8192737" y="37.20761259" /><node id="370" x="126.8192331" y="37.20769664" /><node id="371" x="126.8191926" y="37.20778069" /><node id="372" x="126.819152" y="37.20786474" /><node id="373" x="126.8191096" y="37.20794809" /><node id="374" x="126.8190574" y="37.20802762" /><node id="375" x="126.8190209" y="37.20811285" /><node id="376" x="126.8189844" y="37.20819809" /><node id="377" x="126.8189479" y="37.20828333" /><node id="378" x="126.8189114" y="37.20836857" /><node id="379" x="126.8188749" y="37.20845381" /><node id="380" x="126.8188384" y="37.20853904" /><node id="381" x="126.8188019" y="37.20862428" /><node id="382" x="126.8187654" y="37.20870952" /><node id="383" x="126.8187289" y="37.20879476" /><node id="384" x="126.8186924" y="37.20888" /><node id="385" x="126.818656" y="37.20896526" /><node id="386" x="126.8186198" y="37.20905059" /><node id="387" x="126.8185836" y="37.20913591" /><node id="388" x="126.8185474" y="37.20922124" /><node id="389" x="126.8185113" y="37.20930657" /><node id="390" x="126.8184751" y="37.20939189" /><node id="391" x="126.8184376" y="37.20947684" /><node id="392" x="126.8183964" y="37.20956071" /><node id="393" x="126.8183553" y="37.20964458" /><node id="394" x="126.8183141" y="37.20972844" /><node id="395" x="126.8182802" y="37.20979752" /><node id="396" x="126.8182641" y="37.20983033" /><node id="397" x="126.8184406" y="37.20990738" /><node id="398" x="126.8185395" y="37.20995054" /><node id="399" x="126.8186384" y="37.20999371" /><node id="400" x="126.8187373" y="37.21003687" /><node id="401" x="126.8188361" y="37.21008003" /><node id="402" x="126.818935" y="37.2101232" /><node id="403" x="126.8190339" y="37.21016636" /><node id="404" x="126.8191328" y="37.21020953" /><node id="405" x="126.8192317" y="37.2102527" /><node id="406" x="126.8193305" y="37.21029587" /><node id="407" x="126.8194294" y="37.21033903" /><node id="408" x="126.8195283" y="37.2103822" /><node id="409" x="126.8196272" y="37.21042537" /><node id="410" x="126.819726" y="37.21046854" /><node id="411" x="126.8198249" y="37.21051171" /><node id="412" x="126.8199238" y="37.21055487" /><node id="413" x="126.8200227" y="37.21059804" /><node id="414" x="126.8201216" y="37.21064121" /><node id="415" x="126.8202204" y="37.21068438" /><node id="416" x="126.8203193" y="37.21072755" /><node id="417" x="126.8204182" y="37.21077071" /><node id="418" x="126.8205232" y="37.21080306" /><node id="419" x="126.820629" y="37.21083397" /><node id="420" x="126.8207348" y="37.21086488" /><node id="421" x="126.8208406" y="37.21089579" /><node id="422" x="126.8209465" y="37.21092669" /><node id="423" x="126.8210523" y="37.2109576" /><node id="424" x="126.8211581" y="37.21098851" /><node id="425" x="126.8212639" y="37.21101941" /><node id="426" x="126.8213697" y="37.21105032" /><node id="427" x="126.8214755" y="37.21108122" /><node id="428" x="126.8215799" y="37.21111459" /><node id="429" x="126.8216776" y="37.21115947" /><node id="430" x="126.8217753" y="37.21120435" /><node id="431" x="126.8218729" y="37.21124924" /><node id="432" x="126.8219706" y="37.21129412" /><node id="433" x="126.8220699" y="37.21133658" /><node id="434" x="126.8221712" y="37.21137606" /><node id="435" x="126.8222724" y="37.21141554" /><node id="436" x="126.8223737" y="37.21145502" /><node id="437" x="126.8224749" y="37.2114945" /><node id="438" x="126.8225762" y="37.21153398" /><node id="439" x="126.8226775" y="37.21157346" /><node id="440" x="126.8227787" y="37.21161294" /><node id="441" x="126.82288" y="37.21165242" /><node id="442" x="126.8229813" y="37.2116919" /><node id="443" x="126.8230825" y="37.21173138" /><node id="444" x="126.8231838" y="37.21177086" /><node id="445" x="126.8232848" y="37.21181063" /><node id="446" x="126.8233842" y="37.21185307" /><node id="447" x="126.8234836" y="37.2118955" /><node id="448" x="126.823583" y="37.21193794" /><node id="449" x="126.8236823" y="37.21198038" /><node id="450" x="126.8237817" y="37.21202282" /><node id="451" x="126.8238811" y="37.21206525" /><node id="452" x="126.8239805" y="37.21210769" /><node id="453" x="126.8240798" y="37.21215013" /><node id="454" x="126.8241792" y="37.21219256" /><node id="455" x="126.8242786" y="37.212235" /><node id="456" x="126.824378" y="37.21227744" /><node id="457" x="126.8245202" y="37.2123382" /><node id="458" x="126.8226017" y="37.20386197" /><node id="459" x="126.822677" y="37.20390935" /><node id="460" x="126.8227656" y="37.20396502" /><node id="461" x="126.8228541" y="37.20402069" /><node id="462" x="126.8229427" y="37.20407636" /><node id="463" x="126.8230313" y="37.20413203" /><node id="464" x="126.8231198" y="37.2041877" /><node id="465" x="126.8232084" y="37.20424338" /><node id="466" x="126.823297" y="37.20429905" /><node id="467" x="126.8233855" y="37.20435472" /><node id="468" x="126.8234741" y="37.20441039" /><node id="469" x="126.8235627" y="37.20446606" /><node id="470" x="126.8236512" y="37.20452173" /><node id="471" x="126.8237398" y="37.2045774" /><node id="472" x="126.8238284" y="37.20463307" /><node id="473" x="126.8239169" y="37.20468874" /><node id="474" x="126.8240055" y="37.20474441" /><node id="475" x="126.8240941" y="37.20480008" /><node id="476" x="126.8241826" y="37.20485575" /><node id="477" x="126.8242712" y="37.20491142" /><node id="478" x="126.8243598" y="37.20496709" /><node id="479" x="126.8244483" y="37.20502276" /><node id="480" x="126.8245362" y="37.20507912" /><node id="481" x="126.824624" y="37.20513561" /><node id="482" x="126.8247117" y="37.2051921" /><node id="483" x="126.8247995" y="37.2052486" /><node id="484" x="126.8248872" y="37.20530509" /><node id="485" x="126.824975" y="37.20536158" /><node id="486" x="126.8250627" y="37.20541808" /><node id="487" x="126.8251505" y="37.20547457" /><node id="488" x="126.8252382" y="37.20553106" /><node id="489" x="126.825326" y="37.20558755" /><node id="490" x="126.8254137" y="37.20564405" /><node id="491" x="126.8255015" y="37.20570054" /><node id="492" x="126.8255892" y="37.20575703" /><node id="493" x="126.825677" y="37.20581352" /><node id="494" x="126.8257647" y="37.20587002" /><node id="495" x="126.8258525" y="37.20592651" /><node id="496" x="126.8259402" y="37.205983" /><node id="497" x="126.8260275" y="37.20603993" /><node id="498" x="126.8261147" y="37.20609703" /><node id="499" x="126.8262018" y="37.20615413" /><node id="500" x="126.8262889" y="37.20621124" /><node id="501" x="126.8263761" y="37.20626834" /><node id="502" x="126.8264632" y="37.20632544" /><node id="503" x="126.8265503" y="37.20638254" /><node id="504" x="126.8266366" y="37.20644044" /><node id="505" x="126.82672" y="37.20650097" /><node id="506" x="126.8268035" y="37.20656151" /><node id="507" x="126.8268869" y="37.20662204" /><node id="508" x="126.8269704" y="37.20668257" /><node id="509" x="126.8270538" y="37.2067431" /><node id="510" x="126.8271372" y="37.20680363" /><node id="511" x="126.8272207" y="37.20686416" /><node id="512" x="126.8273041" y="37.20692469" /><node id="513" x="126.8273894" y="37.20698349" /><node id="514" x="126.8274779" y="37.2070392" /><node id="515" x="126.8275664" y="37.20709492" /><node id="516" x="126.827655" y="37.20715063" /><node id="517" x="126.8277435" y="37.20720635" /><node id="518" x="126.827832" y="37.20726206" /><node id="519" x="126.8279205" y="37.20731778" /><node id="520" x="126.8280091" y="37.20737349" /><node id="521" x="126.8281198" y="37.20744321" /><node id="522" x="126.8281296" y="37.20746257" /><node id="523" x="126.8280301" y="37.2075648" /><node id="524" x="126.8279608" y="37.20763588" /><node id="525" x="126.8278916" y="37.20770697" /><node id="526" x="126.8278224" y="37.20777805" /><node id="527" x="126.8277532" y="37.20784913" /><node id="528" x="126.827684" y="37.20792022" /><node id="529" x="126.8276148" y="37.2079913" /><node id="530" x="126.8275455" y="37.20806239" /><node id="531" x="126.8274763" y="37.20813347" /><node id="532" x="126.8274071" y="37.20820455" /><node id="533" x="126.8273379" y="37.20827564" /><node id="534" x="126.827269" y="37.20834695" /><node id="535" x="126.8272008" y="37.20841865" /><node id="536" x="126.8271326" y="37.20849036" /><node id="537" x="126.8270644" y="37.20856206" /><node id="538" x="126.8269962" y="37.20863376" /><node id="539" x="126.826928" y="37.20870546" /><node id="540" x="126.8268598" y="37.20877716" /><node id="541" x="126.8267915" y="37.20884886" /><node id="542" x="126.8267233" y="37.20892056" /><node id="543" x="126.8266551" y="37.20899226" /><node id="544" x="126.8265869" y="37.20906397" /><node id="545" x="126.8265187" y="37.20913567" /><node id="546" x="126.8264527" y="37.2092084" /><node id="547" x="126.826407" y="37.20929078" /><node id="548" x="126.8263614" y="37.20937315" /><node id="549" x="126.8263157" y="37.20945552" /><node id="550" x="126.8262701" y="37.20953789" /><node id="551" x="126.8262244" y="37.20962027" /><node id="552" x="126.8261788" y="37.20970264" /><node id="553" x="126.8261332" y="37.20978501" /><node id="554" x="126.8260875" y="37.20986738" /><node id="555" x="126.8260419" y="37.20994976" /><node id="556" x="126.8259962" y="37.21003213" /><node id="557" x="126.8259506" y="37.2101145" /><node id="558" x="126.8259049" y="37.21019687" /><node id="559" x="126.8258593" y="37.21027924" /><node id="560" x="126.8258137" y="37.21036162" /><node id="561" x="126.825768" y="37.21044399" /><node id="562" x="126.8257224" y="37.21052636" /><node id="563" x="126.8256767" y="37.21060873" /><node id="564" x="126.8256311" y="37.21069111" /><node id="565" x="126.8255854" y="37.21077348" /><node id="566" x="126.8255398" y="37.21085585" /><node id="567" x="126.8254941" y="37.21093822" /><node id="568" x="126.8254485" y="37.21102059" /><node id="569" x="126.8254029" y="37.21110297" /><node id="570" x="126.8253537" y="37.21118401" /><node id="571" x="126.8253033" y="37.2112646" /><node id="572" x="126.8252529" y="37.21134519" /><node id="573" x="126.8252026" y="37.21142578" /><node id="574" x="126.8251512" y="37.21150592" /><node id="575" x="126.8250936" y="37.21158338" /><node id="576" x="126.8250363" y="37.21166094" /><node id="577" x="126.824979" y="37.2117385" /><node id="578" x="126.8249216" y="37.21181606" /><node id="579" x="126.8248643" y="37.21189362" /><node id="580" x="126.824807" y="37.21197118" /><node id="581" x="126.8247496" y="37.21204874" /><node id="582" x="126.8246923" y="37.2121263" /><node id="583" x="126.824635" y="37.21220385" /><node id="584" x="126.8245548" y="37.21231232" /><node id="585" x="126.8245315" y="37.2123438" /><node id="586" x="126.8246466" y="37.21239972" /><node id="587" x="126.8247429" y="37.2124465" /><node id="588" x="126.8248392" y="37.21249327" /><node id="589" x="126.8249355" y="37.21254005" /><node id="590" x="126.8250339" y="37.21258369" /><node id="591" x="126.8251348" y="37.21262384" /><node id="592" x="126.8252356" y="37.212664" /><node id="593" x="126.8253355" y="37.2127057" /><node id="594" x="126.8254339" y="37.21274951" /><node id="595" x="126.8255323" y="37.21279332" /><node id="596" x="126.8256308" y="37.21283712" /><node id="597" x="126.8257292" y="37.21288093" /><node id="598" x="126.8258277" y="37.21292474" /><node id="599" x="126.8259261" y="37.21296854" /><node id="600" x="126.8260245" y="37.21301235" /><node id="601" x="126.826123" y="37.21305615" /><node id="602" x="126.8262214" y="37.21309996" /><node id="603" x="126.8263199" y="37.21314377" /><node id="604" x="126.8264183" y="37.21318757" /><node id="605" x="126.8265168" y="37.21323138" /><node id="606" x="126.8266152" y="37.21327518" /><node id="607" x="126.8267136" y="37.21331899" /><node id="608" x="126.8268121" y="37.21336279" /><node id="609" x="126.8269105" y="37.2134066" /><node id="610" x="126.827009" y="37.21345041" /><node id="611" x="126.8271074" y="37.21349422" /><node id="612" x="126.8272058" y="37.21353803" /><node id="613" x="126.8273043" y="37.21358185" /><node id="614" x="126.8274027" y="37.21362566" /><node id="615" x="126.8275009" y="37.21366986" /><node id="616" x="126.8275979" y="37.21371567" /><node id="617" x="12