<?xml version='1.0' encoding='utf-8'?>
<edges><edge id="1to240" from="1" to="240" speed="13.89" length="100" numLanes="1" /><edge id="2to1" from="2" to="1" speed="13.89" length="100" numLanes="1" /><edge id="3to2" from="3" to="2" speed="13.89" length="100" numLanes="1" /><edge id="4to3" from="4" to="3" speed="13.89" length="100" numLanes="1" /><edge id="5to4" from="5" to="4" speed="13.89" length="100" numLanes="1" /><edge id="6to5" from="6" to="5" speed="13.89" length="100" numLanes="1" /><edge id="7to6" from="7" to="6" speed="13.89" length="100" numLanes="1" /><edge id="8to7" from="8" to="7" speed="13.89" length="100" numLanes="1" /><edge id="9to8" from="9" to="8" speed="13.89" length="100" numLanes="1" /><edge id="10to9" from="10" to="9" speed="13.89" length="100" numLanes="1" /><edge id="11to10" from="11" to="10" speed="13.89" length="100" numLanes="1" /><edge id="12to11" from="12" to="11" speed="13.89" length="100" numLanes="1" /><edge id="13to12" from="13" to="12" speed="13.89" length="100" numLanes="1" /><edge id="14to13" from="14" to="13" speed="13.89" length="100" numLanes="1" /><edge id="15to14" from="15" to="14" speed="13.89" length="100" numLanes="1" /><edge id="16to15" from="16" to="15" speed="13.89" length="100" numLanes="1" /><edge id="17to16" from="17" to="16" speed="13.89" length="100" numLanes="1" /><edge id="18to17" from="18" to="17" speed="13.89" length="100" numLanes="1" /><edge id="19to18" from="19" to="18" speed="13.89" length="100" numLanes="1" /><edge id="20to19" from="20" to="19" speed="13.89" length="100" numLanes="1" /><edge id="21to20" from="21" to="20" speed="13.89" length="100" numLanes="1" /><edge id="22to21" from="22" to="21" speed="13.89" length="100" numLanes="1" /><edge id="23to22" from="23" to="22" speed="13.89" length="100" numLanes="1" /><edge id="24to23" from="24" to="23" speed="13.89" length="100" numLanes="1" /><edge id="25to24" from="25" to="24" speed="13.89" length="100" numLanes="1" /><edge id="26to25" from="26" to="25" speed="13.89" length="100" numLanes="1" /><edge id="27to26" from="27" to="26" speed="13.89" length="100" numLanes="1" /><edge id="28to27" from="28" to="27" speed="13.89" length="100" numLanes="1" /><edge id="29to28" from="29" to="28" speed="13.89" length="100" numLanes="1" /><edge id="30to29" from="30" to="29" speed="13.89" length="100" numLanes="1" /><edge id="31to30" from="31" to="30" speed="13.89" length="100" numLanes="1" /><edge id="32to31" from="32" to="31" speed="13.89" length="100" numLanes="1" /><edge id="33to32" from="33" to="32" speed="13.89" length="100" numLanes="1" /><edge id="34to33" from="34" to="33" speed="13.89" length="100" numLanes="1" /><edge id="35to34" from="35" to="34" speed="13.89" length="100" numLanes="1" /><edge id="36to35" from="36" to="35" speed="13.89" length="100" numLanes="1" /><edge id="37to36" from="37" to="36" speed="13.89" length="100" numLanes="1" /><edge id="37to431" from="37" to="431" speed="13.89" length="100" numLanes="1" /><edge id="38to37" from="38" to="37" speed="13.89" length="100" numLanes="1" /><edge id="39to38" from="39" to="38" speed="13.89" length="100" numLanes="1" /><edge id="40to39" from="40" to="39" speed="13.89" length="100" numLanes="1" /><edge id="41to40" from="41" to="40" speed="13.89" length="100" numLanes="1" /><edge id="42to41" from="42" to="41" speed="13.89" length="100" numLanes="1" /><edge id="43to42" from="43" to="42" speed="13.89" length="100" numLanes="1" /><edge id="44to43" from="44" to="43" speed="13.89" length="100" numLanes="1" /><edge id="45to44" from="45" to="44" speed="13.89" length="100" numLanes="1" /><edge id="46to45" from="46" to="45" speed="13.89" length="100" numLanes="1" /><edge id="47to46" from="47" to="46" speed="13.89" length="100" numLanes="1" /><edge id="48to47" from="48" to="47" speed="13.89" length="100" numLanes="1" /><edge id="49to48" from="49" to="48" speed="13.89" length="100" numLanes="1" /><edge id="50to49" from="50" to="49" speed="13.89" length="100" numLanes="1" /><edge id="51to50" from="51" to="50" speed="13.89" length="100" numLanes="1" /><edge id="52to51" from="52" to="51" speed="13.89" length="100" numLanes="1" /><edge id="53to52" from="53" to="52" speed="13.89" length="100" numLanes="1" /><edge id="54to53" from="54" to="53" speed="13.89" length="100" numLanes="1" /><edge id="55to54" from="55" to="54" speed="13.89" length="100" numLanes="1" /><edge id="56to55" from="56" to="55" speed="13.89" length="100" numLanes="1" /><edge id="57to56" from="57" to="56" speed="13.89" length="100" numLanes="1" /><edge id="58to57" from="58" to="57" speed="13.89" length="100" numLanes="1" /><edge id="59to58" from="59" to="58" speed="13.89" length="100" numLanes="1" /><edge id="60to59" from="60" to="59" speed="13.89" length="100" numLanes="1" /><edge id="61to60" from="61" to="60" speed="13.89" length="100" numLanes="1" /><edge id="62to61" from="62" to="61" speed="13.89" length="100" numLanes="1" /><edge id="63to62" from="63" to="62" speed="13.89" length="100" numLanes="1" /><edge id="64to63" from="64" to="63" speed="13.89" length="100" numLanes="1" /><edge id="64to457" from="64" to="457" speed="13.89" length="100" numLanes="1" /><edge id="65to64" from="65" to="64" speed="13.89" length="100" numLanes="1" /><edge id="65to586" from="65" to="586" speed="13.89" length="100" numLanes="1" /><edge id="66to65" from="66" to="65" speed="13.89" length="100" numLanes="1" /><edge id="67to66" from="67" to="66" speed="13.89" length="100" numLanes="1" /><edge id="68to67" from="68" to="67" speed="13.89" length="100" numLanes="1" /><edge id="69to68" from="69" to="68" speed="13.89" length="100" numLanes="1" /><edge id="70to69" from="70" to="69" speed="13.89" length="100" numLanes="1" /><edge id="71to70" from="71" to="70" speed="13.89" length="100" numLanes="1" /><edge id="72to71" from="72" to="71" speed="13.89" length="100" numLanes="1" /><edge id="73to72" from="73" to="72" speed="13.89" length="100" numLanes="1" /><edge id="74to73" from="74" to="73" speed="13.89" length="100" numLanes="1" /><edge id="75to74" from="75" to="74" speed="13.89" length="100" numLanes="1" /><edge id="76to75" from="76" to="75" speed="13.89" length="100" numLanes="1" /><edge id="77to76" from="77" to="76" speed="13.89" length="100" numLanes="1" /><edge id="78to77" from="78" to="77" speed="13.89" length="100" numLanes="1" /><edge id="79to78" from="79" to="78" speed="13.89" length="100" numLanes="1" /><edge id="80to79" from="80" to="79" speed="13.89" length="100" numLanes="1" /><edge id="81to80" from="81" to="80" speed="13.89" length="100" numLanes="1" /><edge id="82to81" from="82" to="81" speed="13.89" length="100" numLanes="1" /><edge id="83to82" from="83" to="82" speed="13.89" length="100" numLanes="1" /><edge id="84to83" from="84" to="83" speed="13.89" length="100" numLanes="1" /><edge id="85to84" from="85" to="84" speed="13.89" length="100" numLanes="1" /><edge id="86to85" from="86" to="85" speed="13.89" length="100" numLanes="1" /><edge id="87to86" from="87" to="86" speed="13.89" length="100" numLanes="1" /><edge id="88to87" from="88" to="87" speed="13.89" length="100" numLanes="1" /><edge id="89to88" from="89" to="88" speed="13.89" length="100" numLanes="1" /><edge id="90to89" from="90" to="89" speed="13.89" length="100" numLanes="1" /><edge id="91to90" from="91" to="90" speed="13.89" length="100" numLanes="1" /><edge id="92to91" from="92" to="91" speed="13.89" length="100" numLanes="1" /><edge id="93to92" from="93" to="92" speed="13.89" length="100" numLanes="1" /><edge id="94to93" from="94" to="93" speed="13.89" length="100" numLanes="1" /><edge id="95to94" from="95" to="94" speed="13.89" length="100" numLanes="1" /><edge id="96to95" from="96" to="95" speed="13.89" length="100" numLanes="1" /><edge id="97to96" from="97" to="96" speed="13.89" length="100" numLanes="1" /><edge id="98to97" from="98" to="97" speed="13.89" length="100" numLanes="1" /><edge id="99to98" from="99" to="98" speed="13.89" length="100" numLanes="1" /><edge id="100to99" from="100" to="99" speed="13.89" length="100" numLanes="1" /><edge id="101to100" from="101" to="100" speed="13.89" length="100" numLanes="1" /><edge id="102to101" from="102" to="101" speed="13.89" length="100" numLanes="1" /><edge id="103to102" from="103" to="102" speed="13.89" length="100" numLanes="1" /><edge id="104to103" from="104" to="103" speed="13.89" length="100" numLanes="1" /><edge id="105to104" from="105" to="104" speed="13.89" length="100" numLanes="1" /><edge id="106to105" from="106" to="105" speed="13.89" length="100" numLanes="1" /><edge id="107to106" from="107" to="106" speed="13.89" length="100" numLanes="1" /><edge id="108to107" from="108" to="107" speed="13.89" length="100" numLanes="1" /><edge id="109to108" from="109" to="108" speed="13.89" length="100" numLanes="1" /><edge id="110to109" from="110" to="109" speed="13.89" length="100" numLanes="1" /><edge id="111to110" from="111" to="110" speed="13.89" length="100" numLanes="1" /><edge id="112to111" from="112" to="111" speed="13.89" length="100" numLanes="1" /><edge id="113to112" from="113" to="112" speed="13.89" length="100" numLanes="1" /><edge id="114to113" from="114" to="113" speed="13.89" length="100" numLanes="1" /><edge id="115to114" from="115" to="114" speed="13.89" length="100" numLanes="1" /><edge id="116to115" from="116" to="115" speed="13.89" length="100" numLanes="1" /><edge id="117to116" from="117" to="116" speed="13.89" length="100" numLanes="1" /><edge id="118to117" from="118" to="117" speed="13.89" length="100" numLanes="1" /><edge id="119to118" from="119" to="118" speed="13.89" length="100" numLanes="1" /><edge id="120to119" from="120" to="119" speed="13.89" length="100" numLanes="1" /><edge id="120to641" from="120" to="641" speed="13.89" length="100" numLanes="1" /><edge id="121to120" from="121" to="120" speed="13.89" length="100" numLanes="1" /><edge id="122to121" from="122" to="121" speed="13.89" length="100" numLanes="1" /><edge id="123to122" from="123" to="122" speed="13.89" length="100" numLanes="1" /><edge id="124to123" from="124" to="123" speed="13.89" length="100" numLanes="1" /><edge id="125to124" from="125" to="124" speed="13.89" length="100" numLanes="1" /><edge id="126to125" from="126" to="125" speed="13.89" length="100" numLanes="1" /><edge id="127to126" from="127" to="126" speed="13.89" length="100" numLanes="1" /><edge id="128to127" from="128" to="127" speed="13.89" length="100" numLanes="1" /><edge id="129to128" from="129" to="128" speed="13.89" length="100" numLanes="1" /><edge id="130to129" from="130" to="129" speed="13.89" length="100" numLanes="1" /><edge id="131to130" from="131" to="130" speed="13.89" length="100" numLanes="1" /><edge id="132to131" from="132" to="131" speed="13.89" length="100" numLanes="1" /><edge id="133to132" from="133" to="132" speed="13.89" length="100" numLanes="1" /><edge id="134to133" from="134" to="133" speed="13.89" length="100" numLanes="1" /><edge id="135to134" from="135" to="134" speed="13.89" length="100" numLanes="1" /><edge id="136to135" from="136" to="135" speed="13.89" length="100" numLanes="1" /><edge id="137to136" from="137" to="136" speed="13.89" length="100" numLanes="1" /><edge id="138to137" from="138" to="137" speed="13.89" length="100" numLanes="1" /><edge id="139to138" from="139" to="138" speed="13.89" length="100" numLanes="1" /><edge id="140to139" from="140" to="139" speed="13.89" length="100" numLanes="1" /><edge id="141to140" from="141" to="140" speed="13.89" length="100" numLanes="1" /><edge id="142to141" from="142" to="141" speed="13.89" length="100" numLanes="1" /><edge id="143to142" from="143" to="142" speed="13.89" length="100" numLanes="1" /><edge id="144to143" from="144" to="143" speed="13.89" length="100" numLanes="1" /><edge id="145to144" from="145" to="144" speed="13.89" length="100" numLanes="1" /><edge id="146to145" from="146" to="145" speed="13.89" length="100" numLanes="1" /><edge id="147to146" from="147" to="146" speed="13.89" length="100" numLanes="1" /><edge id="148to147" from="148" to="147" speed="13.89" length="100" numLanes="1" /><edge id="149to148" from="149" to="148" speed="13.89" length="100" numLanes="1" /><edge id="150to149" from="150" to="149" speed="13.89" length="100" numLanes="1" /><edge id="151to150" from="151" to="150" speed="13.89" length="100" numLanes="1" /><edge id="152to151" from="152" to="151" speed="13.89" length="100" numLanes="1" /><edge id="152to153" from="152" to="153" speed="13.89" length="100" numLanes="1" /><edge id="153to154" from="153" to="154" speed="13.89" length="100" numLanes="1" /><edge id="154to155" from="154" to="155" speed="13.89" length="100" numLanes="1" /><edge id="155to156" from="155" to="156" speed="13.89" length="100" numLanes="1" /><edge id="156to157" from="156" to="157" speed="13.89" length="100" numLanes="1" /><edge id="157to158" from="157" to="158" speed="13.89" length="100" numLanes="1" /><edge id="158to159" from="158" to="159" speed="13.89" length="100" numLanes="1" /><edge id="159to160" from="159" to="160" speed="13.89" length="100" numLanes="1" /><edge id="160to161" from="160" to="161" speed="13.89" length="100" numLanes="1" /><edge id="161to162" from="161" to="162" speed="13.89" length="100" numLanes="1" /><edge id="162to163" from="162" to="163" speed="13.89" length="100" numLanes="1" /><edge id="163to164" from="163" to="164" speed="13.89" length="100" numLanes="1" /><edge id="164to165" from="164" to="165" speed="13.89" length="100" numLanes="1" /><edge id="165to166" from="165" to="166" speed="13.89" length="100" numLanes="1" /><edge id="166to167" from="166" to="167" speed="13.89" length="100" numLanes="1" /><edge id="167to168" from="167" to="168" speed="13.89" length="100" numLanes="1" /><edge id="168to169" from="168" to="169" speed="13.89" length="100" numLanes="1" /><edge id="169to170" from="169" to="170" speed="13.89" length="100" numLanes="1" /><edge id="170to171" from="170" to="171" speed="13.89" length="100" numLanes="1" /><edge id="171to172" from="171" to="172" speed="13.89" length="100" numLanes="1" /><edge id="172to173" from="172" to="173" speed="13.89" length="100" numLanes="1" /><edge id="173to174" from="173" to="174" speed="13.89" length="100" numLanes="1" /><edge id="174to175" from="174" to="175" speed="13.89" length="100" numLanes="1" /><edge id="175to176" from="175" to="176" speed="13.89" length="100" numLanes="1" /><edge id="176to177" from="176" to="177" speed="13.89" length="100" numLanes="1" /><edge id="177to178" from="177" to="178" speed="13.89" length="100" numLanes="1" /><edge id="178to179" from="178" to="179" speed="13.89" length="100" numLanes="1" /><edge id="179to180" from="179" to="180" speed="13.89" length="100" numLanes="1" /><edge id="180to181" from="180" to="181" speed="13.89" length="100" numLanes="1" /><edge id="181to182" from="181" to="182" speed="13.89" length="100" numLanes="1" /><edge id="182to183" from="182" to="183" speed="13.89" length="100" numLanes="1" /><edge id="183to184" from="183" to="184" speed="13.89" length="100" numLanes="1" /><edge id="184to185" from="184" to="185" speed="13.89" length="100" numLanes="1" /><edge id="185to186" from="185" to="186" speed="13.89" length="100" numLanes="1" /><edge id="186to187" from="186" to="187" speed="13.89" length="100" numLanes="1" /><edge id="187to188" from="187" to="188" speed="13.89" length="100" numLanes="1" /><edge id="188to189" from="188" to="189" speed="13.89" length="100" numLanes="1" /><edge id="189to190" from="189" to="190" speed="13.89" length="100" numLanes="1" /><edge id="190to191" from="190" to="191" speed="13.89" length="100" numLanes="1" /><edge id="191to192" from="191" to="192" speed="13.89" length="100" numLanes="1" /><edge id="192to193" from="192" to="193" speed="13.89" length="100" numLanes="1" /><edge id="193to194" from="193" to="194" speed="13.89" length="100" numLanes="1" /><edge id="194to195" from="194" to="195" speed="13.89" length="100" numLanes="1" /><edge id="195to196" from="195" to="196" speed="13.89" length="100" numLanes="1" /><edge id="196to197" from="196" to="197" speed="13.89" length="100" numLanes="1" /><edge id="197to198" from="197" to="198" speed="13.89" length="100" numLanes="1" /><edge id="198to199" from="198" to="199" speed="13.89" length="100" numLanes="1" /><edge id="199to200" from="199" to="200" speed="13.89" length="100" numLanes="1" /><edge id="200to201" from="200" to="201" speed="13.89" length="100" numLanes="1" /><edge id="201to202" from="201" to="202" speed="13.89" length="100" numLanes="1" /><edge id="202to203" from="202" to="203" speed="13.89" length="100" numLanes="1" /><edge id="203to204" from="203" to="204" speed="13.89" length="100" numLanes="1" /><edge id="204to205" from="204" to="205" speed="13.89" length="100" numLanes="1" /><edge id="205to206" from="205" to="206" speed="13.89" length="100" numLanes="1" /><edge id="206to207" from="206" to="207" speed="13.89" length="100" numLanes="1" /><edge id="207to208" from="207" to="208" speed="13.89" length="100" numLanes="1" /><edge id="208to209" from="208" to="209" speed="13.89" length="100" numLanes="1" /><edge id="209to210" from="209" to="210" speed="13.89" length="100" numLanes="1" /><edge id="210to211" from="210" to="211" speed="13.89" length="100" numLanes="1" /><edge id="211to212" from="211" to="212" speed="13.89" length="100" numLanes="1" /><edge id="212to213" from="212" to="213" speed="13.89" length="100" numLanes="1" /><edge id="213to214" from="213" to="214" speed="13.89" length="100" numLanes="1" /><edge id="214to215" from="214" to="215" speed="13.89" length="100" numLanes="1" /><edge id="215to216" from="215" to="216" speed="13.89" length="100" numLanes="1" /><edge id="216to217" from="216" to="217" speed="13.89" length="100" numLanes="1" /><edge id="217to218" from="217" to="218" speed="13.89" length="100" numLanes="1" /><edge id="218to219" from="218" to="219" speed="13.89" length="100" numLanes="1" /><edge id="219to220" from="219" to="220" speed="13.89" length="100" numLanes="1" /><edge id="220to221" from="220" to="221" speed="13.89" length="100" numLanes="1" /><edge id="221to222" from="221" to="222" speed="13.89" length="100" numLanes="1" /><edge id="221to1117" from="221" to="1117" speed="13.89" length="100" numLanes="1" /><edge id="222to223" from="222" to="223" speed="13.89" length="100" numLanes="1" /><edge id="222to239" from="222" to="239" speed="13.89" length="100" numLanes="1" /><edge id="223to224" from="223" to="224" speed="13.89" length="100" numLanes="1" /><edge id="224to225" from="224" to="225" speed="13.89" length="100" numLanes="1" /><edge id="225to226" from="225" to="226" speed="13.89" length="100" numLanes="1" /><edge id="226to227" from="226" to="227" speed="13.89" length="100" numLanes="1" /><edge id="227to228" from="227" to="228" speed="13.89" length="100" numLanes="1" /><edge id="228to229" from="228" to="229" speed="13.89" length="100" numLanes="1" /><edge id="229to230" from="229" to="230" speed="13.89" length="100" numLanes="1" /><edge id="231to230" from="231" to="230" speed="13.89" length="100" numLanes="1" /><edge id="232to231" from="232" to="231" speed="13.89" length="100" numLanes="1" /><edge id="233to232" from="233" to="232" speed="13.89" length="100" numLanes="1" /><edge id="234to233" from="234" to="233" speed="13.89" length="100" numLanes="1" /><edge id="235to1110" from="235" to="1110" speed="13.89" length="100" numLanes="1" /><edge id="236to235" from="236" to="235" speed="13.89" length="100" numLanes="1" /><edge id="237to236" from="237" to="236" speed="13.89" length="100" numLanes="1" /><edge id="238to237" from="238" to="237" speed="13.89" length="100" numLanes="1" /><edge id="239to238" from="239" to="238" speed="13.89" length="100" numLanes="1" /><edge id="240to241" from="240" to="241" speed="13.89" length="100" numLanes="1" /><edge id="241to242" from="241" to="242" speed="13.89" length="100" numLanes="1" /><edge id="242to243" from="242" to="243" speed="13.89" length="100" numLanes="1" /><edge id="243to244" from="243" to="244" speed="13.89" length="100" numLanes="1" /><edge id="244to245" from="244" to="245" speed="13.89" length="100" numLanes="1" /><edge id="245to246" from="245" to="246" speed="13.89" length="100" numLanes="1" /><edge id="246to247" from="246" to="247" speed="13.89" length="100" numLanes="1" /><edge id="247to248" from="247" to="248" speed="13.89" length="100" numLanes="1" /><edge id="248to249" from="248" to="249" speed="13.89" length="100" numLanes="1" /><edge id="249to250" from="249" to="250" speed="13.89" length="100" numLanes="1" /><edge id="250to251" from="250" to="251" speed="13.89" length="100" numLanes="1" /><edge id="251to252" from="251" to="252" speed="13.89" length="100" numLanes="1" /><edge id="252to253" from="252" to="253" speed="13.89" length="100" numLanes="1" /><edge id="253to254" from="253" to="254" speed="13.89" length="100" numLanes="1" /><edge id="254to255" from="254" to="255" speed="13.89" length="100" numLanes="1" /><edge id="255to256" from="255" to="256" speed="13.89" length="100" numLanes="1" /><edge id="256to257" from="256" to="257" speed="13.89" length="100" numLanes="1" /><edge id="257to258" from="257" to="258" speed="13.89" length="100" numLanes="1" /><edge id="258to259" from="258" to="259" speed="13.89" length="100" numLanes="1" /><edge id="259to260" from="259" to="260" speed="13.89" length="100" numLanes="1" /><edge id="260to261" from="260" to="261" speed="13.89" length="100" numLanes="1" /><edge id="261to262" from="261" to="262" speed="13.89" length="100" numLanes="1" /><edge id="262to263" from="262" to="263" speed="13.89" length="100" numLanes="1" /><edge id="263to264" from="263" to="264" speed="13.89" length="100" numLanes="1" /><edge id="264to265" from="264" to="265" speed="13.89" length="100" numLanes="1" /><edge id="265to266" from="265" to="266" speed="13.89" length="100" numLanes="1" /><edge id="266to267" from="266" to="267" speed="13.89" length="100" numLanes="1" /><edge id="267to268" from="267" to="268" speed="13.89" length="100" numLanes="1" /><edge id="268to269" from="268" to="269" speed="13.89" length="100" numLanes="1" /><edge id="269to270" from="269" to="270" speed="13.89" length="100" numLanes="1" /><edge id="270to271" from="270" to="271" speed="13.89" length="100" numLanes="1" /><edge id="271to272" from="271" to="272" speed="13.89" length="100" numLanes="1" /><edge id="272to273" from="272" to="273" speed="13.89" length="100" numLanes="1" /><edge id="273to274" from="273" to="274" speed="13.89" length="100" numLanes="1" /><edge id="274to275" from="274" to="275" speed="13.89" length="100" numLanes="1" /><edge id="275to276" from="275" to="276" speed="13.89" length="100" numLanes="1" /><edge id="276to277" from="276" to="277" speed="13.89" length="100" numLanes="1" /><edge id="277to278" from="277" to="278" speed="13.89" length="100" numLanes="1" /><edge id="278to279" from="278" to="279" speed="13.89" length="100" numLanes="1" /><edge id="278to357" from="278" to="357" speed="13.89" length="100" numLanes="1" /><edge id="279to280" from="279" to="280" speed="13.89" length="100" numLanes="1" /><edge id="280to281" from="280" to="281" speed="13.89" length="100" numLanes="1" /><edge id="281to282" from="281" to="282" speed="13.89" length="100" numLanes="1" /><edge id="282to283" from="282" to="283" speed="13.89" length="100" numLanes="1" /><edge id="283to284" from="283" to="284" speed="13.89" length="100" numLanes="1" /><edge id="284to285" from="284" to="285" speed="13.89" length="100" numLanes="1" /><edge id="285to286" from="285" to="286" speed="13.89" length="100" numLanes="1" /><edge id="286to287" from="286" to="287" speed="13.89" length="100" numLanes="1" /><edge id="287to288" from="287" to="288" speed="13.89" length="100" numLanes="1" /><edge id="288to289" from="288" to="289" speed="13.89" length="100" numLanes="1" /><edge id="289to290" from="289" to="290" speed="13.89" length="100" numLanes="1" /><edge id="290to291" from="290" to="291" speed="13.89" length="100" numLanes="1" /><edge id="291to292" from="291" to="292" speed="13.89" length="100" numLanes="1" /><edge id="292to293" from="292" to="293" speed="13.89" length="100" numLanes="1" /><edge id="293to294" from="293" to="294" speed="13.89" length="100" numLanes="1" /><edge id="294to295" from="294" to="295" speed="13.89" length="100" numLanes="1" /><edge id="295to296" from="295" to="296" speed="13.89" length="100" numLanes="1" /><edge id="295to340" from="295" to="340" speed="13.89" length="100" numLanes="1" /><edge id="296to297" from="296" to="297" speed="13.89" length="100" numLanes="1" /><edge id="297to298" from="297" to="298" speed="13.89" length="100" numLanes="1" /><edge id="298to299" from="298" to="299" speed="13.89" length="100" numLanes="1" /><edge id="299to300" from="299" to="300" speed="13.89" length="100" numLanes="1" /><edge id="300to301" from="300" to="301" speed="13.89" length="100" numLanes="1" /><edge id="301to302" from="301" to="302" speed="13.89" length="100" numLanes="1" /><edge id="302to303" from="302" to="303" speed="13.89" length="100" numLanes="1" /><edge id="303to304" from="303" to="304" speed="13.89" length="100" numLanes="1" /><edge id="304to305" from="304" to="305" speed="13.89" length="100" numLanes="1" /><edge id="305to306" from="305" to="306" speed="13.89" length="100" numLanes="1" /><edge id="306to307" from="306" to="307" speed="13.89" length="100" numLanes="1" /><edge id="307to308" from="307" to="308" speed="13.89" length="100" numLanes="1" /><edge id="308to309" from="308" to="309" speed="13.89" length="100" numLanes="1" /><edge id="309to310" from="309" to="310" speed="13.89" length="100" numLanes="1" /><edge id="310to311" from="310" to="311" speed="13.89" length="100" numLanes="1" /><edge id="311to312" from="311" to="312" speed="13.89" length="100" numLanes="1" /><edge id="312to313" from="312" to="313" speed="13.89" length="100" numLanes="1" /><edge id="313to314" from="313" to="314" speed="13.89" length="100" numLanes="1" /><edge id="314to315" from="314" to="315" speed="13.89" length="100" numLanes="1" /><edge id="315to316" from="315" to="316" speed="13.89" length="100" numLanes="1" /><edge id="316to317" from="316" to="317" speed="13.89" length="100" numLanes="1" /><edge id="316to319" from="316" to="319" speed="13.89" length="100" numLanes="1" /><edge id="317to664" from="317" to="664" speed="13.89" length="100" numLanes="1" /><edge id="317to803" from="317" to="803" speed="13.89" length="100" numLanes="1" /><edge id="318to319" from="318" to="319" speed="13.89" length="100" numLanes="1" /><edge id="319to320" from="319" to="320" speed="13.89" length="100" numLanes="1" /><edge id="320to321" from="320" to="321" speed="13.89" length="100" numLanes="1" /><edge id="321to322" from="321" to="322" speed="13.89" length="100" numLanes="1" /><edge id="322to323" from="322" to="323" speed="13.89" length="100" numLanes="1" /><edge id="323to324" from="323" to="324" speed="13.89" length="100" numLanes="1" /><edge id="324to325" from="324" to="325" speed="13.89" length="100" numLanes="1" /><edge id="325to326" from="325" to="326" speed="13.89" length="100" numLanes="1" /><edge id="326to327" from="326" to="327" speed="13.89" length="100" numLanes="1" /><edge id="327to328" from="327" to="328" speed="13.89" length="100" numLanes="1" /><edge id="328to329" from="328" to="329" speed="13.89" length="100" numLanes="1" /><edge id="329to330" from="329" to="330" speed="13.89" length="100" numLanes="1" /><edge id="330to331" from="330" to="331" speed="13.89" length="100" numLanes="1" /><edge id="331to332" from="331" to="332" speed="13.89" length="100" numLanes="1" /><edge id="332to333" from="332" to="333" speed="13.89" length="100" numLanes="1" /><edge id="333to334" from="333" to="334" speed="13.89" length="100" numLanes="1" /><edge id="334to335" from="334" to="335" speed="13.89" length="100" numLanes="1" /><edge id="335to336" from="335" to="336" speed="13.89" length="100" numLanes="1" /><edge id="336to337" from="336" to="337" speed="13.89" length="100" numLanes="1" /><edge id="337to338" from="337" to="338" speed="13.89" length="100" numLanes="1" /><edge id="338to339" from="338" to="339" speed="13.89" length="100" numLanes="1" /><edge id="338to297" from="338" to="297" speed="13.89" length="100" numLanes="1" /><edge id="339to340" from="339" to="340" speed="13.89" length="100" numLanes="1" /><edge id="340to341" from="340" to="341" speed="13.89" length="100" numLanes="1" /><edge id="341to342" from="341" to="342" speed="13.89" length="100" numLanes="1" /><edge id="342to343" from="342" to="343" speed="13.89" length="100" numLanes="1" /><edge id="343to344" from="343" to="344" speed="13.89" length="100" numLanes="1" /><edge id="344to345" from="344" to="345" speed="13.89" length="100" numLanes="1" /><edge id="345to346" from="345" to="346" speed="13.89" length="100" numLanes="1" /><edge id="346to347" from="346" to="347" speed="13.89" length="100" numLanes="1" /><edge id="347to348" from="347" to="348" speed="13.89" length="100" numLanes="1" /><edge id="348to349" from="348" to="349" speed="13.89" length="100" numLanes="1" /><edge id="349to350" from="349" to="350" speed="13.89" length="100" numLanes="1" /><edge id="350to351" from="350" to="351" speed="13.89" length="100" numLanes="1" /><edge id="351to352" from="351" to="352" speed="13.89" length="100" numLanes="1" /><edge id="352to353" from="352" to="353" speed="13.89" length="100" numLanes="1" /><edge id="353to354" from="353" to="354" speed="13.89" length="100" numLanes="1" /><edge id="354to355" from="354" to="355" speed="13.89" length="100" numLanes="1" /><edge id="355to356" from="355" to="356" speed="13.89" length="100" numLanes="1" /><edge id="355to280" from="355" to="280" speed="13.89" length="100" numLanes="1" /><edge id="356to357" from="356" to="357" speed="13.89" length="100" numLanes="1" /><edge id="357to358" from="357" to="358" speed="13.89" length="100" numLanes="1" /><edge id="358to359" from="358" to="359" speed="13.89" length="100" numLanes="1" /><edge id="359to360" from="359" to="360" speed="1