<?xml version='1.0' encoding='utf-8'?>
<edges><edge id="414683518to6172502113" from="414683518" to="6172502113" speed="13.89" length="100" numLanes="1" /><edge id="414683518to4795070128" from="414683518" to="4795070128" speed="13.89" length="100" numLanes="1" /><edge id="414683518to414683518_4641681200_0" from="414683518" to="414683518_4641681200_0" speed="13.89" length="100" numLanes="1" /><edge id="414683518to414683518_436745092_0" from="414683518" to="414683518_436745092_0" speed="13.89" length="100" numLanes="1" /><edge id="414929159to4641680981" from="414929159" to="4641680981" speed="13.89" length="100" numLanes="1" /><edge id="414929159to11065466946" from="414929159" to="11065466946" speed="13.89" length="100" numLanes="1" /><edge id="414929162to414929162_4634761747_0" from="414929162" to="414929162_4634761747_0" speed="13.89" length="100" numLanes="1" /><edge id="414929162to414929162_4639341936_0" from="414929162" to="414929162_4639341936_0" speed="13.89" length="100" numLanes="1" /><edge id="414929162to414929162_414929163_0" from="414929162" to="414929162_414929163_0" speed="13.89" length="100" numLanes="1" /><edge id="414929163to692477969" from="414929163" to="692477969" speed="13.89" length="100" numLanes="1" /><edge id="414929163to414929163_414929162_0" from="414929163" to="414929163_414929162_0" speed="13.89" length="100" numLanes="1" /><edge id="414929163to414929163_692477971_0" from="414929163" to="414929163_692477971_0" speed="13.89" length="100" numLanes="1" /><edge id="414929417to10123338381" from="414929417" to="10123338381" speed="13.89" length="100" numLanes="1" /><edge id="414929417to436745088" from="414929417" to="436745088" speed="13.89" length="100" numLanes="1" /><edge id="414929417to414929417_4634761730_0" from="414929417" to="414929417_4634761730_0" speed="13.89" length="100" numLanes="1" /><edge id="414929417to414929417_11065466945_0" from="414929417" to="414929417_11065466945_0" speed="13.89" length="100" numLanes="1" /><edge id="414930082to436745097" from="414930082" to="436745097" speed="13.89" length="100" numLanes="1" /><edge id="436745057to4741501459" from="436745057" to="4741501459" speed="13.89" length="100" numLanes="1" /><edge id="436745058to436745059" from="436745058" to="436745059" speed="13.89" length="100" numLanes="1" /><edge id="436745058to4741501459" from="436745058" to="4741501459" speed="13.89" length="100" numLanes="1" /><edge id="436745059to9197095737" from="436745059" to="9197095737" speed="13.89" length="100" numLanes="1" /><edge id="436745059to436745058" from="436745059" to="436745058" speed="13.89" length="100" numLanes="1" /><edge id="436745060to436745061" from="436745060" to="436745061" speed="13.89" length="100" numLanes="1" /><edge id="436745060to9197095737" from="436745060" to="9197095737" speed="13.89" length="100" numLanes="1" /><edge id="436745061to436745062" from="436745061" to="436745062" speed="13.89" length="100" numLanes="1" /><edge id="436745061to436745060" from="436745061" to="436745060" speed="13.89" length="100" numLanes="1" /><edge id="436745062to9634497552" from="436745062" to="9634497552" speed="13.89" length="100" numLanes="1" /><edge id="436745062to436745063" from="436745062" to="436745063" speed="13.89" length="100" numLanes="1" /><edge id="436745062to436745061" from="436745062" to="436745061" speed="13.89" length="100" numLanes="1" /><edge id="436745063to436745064" from="436745063" to="436745064" speed="13.89" length="100" numLanes="1" /><edge id="436745063to436745062" from="436745063" to="436745062" speed="13.89" length="100" numLanes="1" /><edge id="436745064to436745066" from="436745064" to="436745066" speed="13.89" length="100" numLanes="1" /><edge id="436745064to436745063" from="436745064" to="436745063" speed="13.89" length="100" numLanes="1" /><edge id="436745066to436745064" from="436745066" to="436745064" speed="13.89" length="100" numLanes="1" /><edge id="436745066to436745066_436745067_0" from="436745066" to="436745066_436745067_0" speed="13.89" length="100" numLanes="1" /><edge id="436745067to436745067_436745068_0" from="436745067" to="436745067_436745068_0" speed="13.89" length="100" numLanes="1" /><edge id="436745067to436745067_436745066_0" from="436745067" to="436745067_436745066_0" speed="13.89" length="100" numLanes="1" /><edge id="436745067to436745067_11065466876_0" from="436745067" to="436745067_11065466876_0" speed="13.89" length="100" numLanes="1" /><edge id="436745068to436745068_436745069_0" from="436745068" to="436745068_436745069_0" speed="13.89" length="100" numLanes="1" /><edge id="436745068to436745068_436745067_0" from="436745068" to="436745068_436745067_0" speed="13.89" length="100" numLanes="1" /><edge id="436745069to4060123395" from="436745069" to="4060123395" speed="13.89" length="100" numLanes="1" /><edge id="436745069to436745069_436745068_0" from="436745069" to="436745069_436745068_0" speed="13.89" length="100" numLanes="1" /><edge id="436745078to436745078_4639654866_0" from="436745078" to="436745078_4639654866_0" speed="13.89" length="100" numLanes="1" /><edge id="436745078to436745078_4634761715_0" from="436745078" to="436745078_4634761715_0" speed="13.89" length="100" numLanes="1" /><edge id="436745088to414929417" from="436745088" to="414929417" speed="13.89" length="100" numLanes="1" /><edge id="436745088to436745088_10123338382_0" from="436745088" to="436745088_10123338382_0" speed="13.89" length="100" numLanes="1" /><edge id="436745089to436745089_4741501778_0" from="436745089" to="436745089_4741501778_0" speed="13.89" length="100" numLanes="1" /><edge id="436745089to436745089_4735991850_0" from="436745089" to="436745089_4735991850_0" speed="13.89" length="100" numLanes="1" /><edge id="436745090to4640926179" from="436745090" to="4640926179" speed="13.89" length="100" numLanes="1" /><edge id="436745090to4741501778" from="436745090" to="4741501778" speed="13.89" length="100" numLanes="1" /><edge id="436745092to436745092_692477969_0" from="436745092" to="436745092_692477969_0" speed="13.89" length="100" numLanes="1" /><edge id="436745092to436745092_4795070127_0" from="436745092" to="436745092_4795070127_0" speed="13.89" length="100" numLanes="1" /><edge id="436745092to436745092_414683518_0" from="436745092" to="436745092_414683518_0" speed="13.89" length="100" numLanes="1" /><edge id="436745092to436745092_4641680986_0" from="436745092" to="436745092_4641680986_0" speed="13.89" length="100" numLanes="1" /><edge id="436745093to4641680986" from="436745093" to="4641680986" speed="13.89" length="100" numLanes="1" /><edge id="436745093to436745093_4639341936_0" from="436745093" to="436745093_4639341936_0" speed="13.89" length="100" numLanes="1" /><edge id="436745093to436745093_4641680973_0" from="436745093" to="436745093_4641680973_0" speed="13.89" length="100" numLanes="1" /><edge id="436745094to436745094_4639341927_0" from="436745094" to="436745094_4639341927_0" speed="13.89" length="100" numLanes="1" /><edge id="436745094to436745094_4641680973_0" from="436745094" to="436745094_4641680973_0" speed="13.89" length="100" numLanes="1" /><edge id="436745095to4639341927" from="436745095" to="4639341927" speed="13.89" length="100" numLanes="1" /><edge id="436745095to436745095_436745096_0" from="436745095" to="436745095_436745096_0" speed="13.89" length="100" numLanes="1" /><edge id="436745096to4641680979" from="436745096" to="4641680979" speed="13.89" length="100" numLanes="1" /><edge id="436745096to436745096_436745095_0" from="436745096" to="436745096_436745095_0" speed="13.89" length="100" numLanes="1" /><edge id="436745097to414930082" from="436745097" to="414930082" speed="13.89" length="100" numLanes="1" /><edge id="436745097to4641680979" from="436745097" to="4641680979" speed="13.89" length="100" numLanes="1" /><edge id="436924661to436924661_4639341948_0" from="436924661" to="436924661_4639341948_0" speed="13.89" length="100" numLanes="1" /><edge id="436924661to436924661_4742469035_0" from="436924661" to="436924661_4742469035_0" speed="13.89" length="100" numLanes="1" /><edge id="436924922to4061247744" from="436924922" to="4061247744" speed="13.89" length="100" numLanes="1" /><edge id="436924923to436924924" from="436924923" to="436924924" speed="13.89" length="100" numLanes="1" /><edge id="436924923to4061247744" from="436924923" to="4061247744" speed="13.89" length="100" numLanes="1" /><edge id="436924924to436924923" from="436924924" to="436924923" speed="13.89" length="100" numLanes="1" /><edge id="436924924to436924924_436924925_0" from="436924924" to="436924924_436924925_0" speed="13.89" length="100" numLanes="1" /><edge id="436924925to436924926" from="436924925" to="436924926" speed="13.89" length="100" numLanes="1" /><edge id="436924925to436924925_436924924_0" from="436924925" to="436924925_436924924_0" speed="13.89" length="100" numLanes="1" /><edge id="436924926to436924927" from="436924926" to="436924927" speed="13.89" length="100" numLanes="1" /><edge id="436924926to436924925" from="436924926" to="436924925" speed="13.89" length="100" numLanes="1" /><edge id="436924927to436924928" from="436924927" to="436924928" speed="13.89" length="100" numLanes="1" /><edge id="436924927to436924926" from="436924927" to="436924926" speed="13.89" length="100" numLanes="1" /><edge id="436924928to436924927" from="436924928" to="436924927" speed="13.89" length="100" numLanes="1" /><edge id="436924928to436924928_436924929_0" from="436924928" to="436924928_436924929_0" speed="13.89" length="100" numLanes="1" /><edge id="436924929to436924929_436924930_0" from="436924929" to="436924929_436924930_0" speed="13.89" length="100" numLanes="1" /><edge id="436924929to436924929_436924928_0" from="436924929" to="436924929_436924928_0" speed="13.89" length="100" numLanes="1" /><edge id="436924930to436924930_436924931_0" from="436924930" to="436924930_436924931_0" speed="13.89" length="100" numLanes="1" /><edge id="436924930to436924930_436924929_0" from="436924930" to="436924930_436924929_0" speed="13.89" length="100" numLanes="1" /><edge id="436924931to436924932" from="436924931" to="436924932" speed="13.89" length="100" numLanes="1" /><edge id="436924931to436924931_436924930_0" from="436924931" to="436924931_436924930_0" speed="13.89" length="100" numLanes="1" /><edge id="436924932to436924931" from="436924932" to="436924931" speed="13.89" length="100" numLanes="1" /><edge id="436924932to436924932_436924933_0" from="436924932" to="436924932_436924933_0" speed="13.89" length="100" numLanes="1" /><edge id="436924933to436924934" from="436924933" to="436924934" speed="13.89" length="100" numLanes="1" /><edge id="436924933to436924933_436924932_0" from="436924933" to="436924933_436924932_0" speed="13.89" length="100" numLanes="1" /><edge id="436924934to436924933" from="436924934" to="436924933" speed="13.89" length="100" numLanes="1" /><edge id="436924934to436924934_436924935_0" from="436924934" to="436924934_436924935_0" speed="13.89" length="100" numLanes="1" /><edge id="436924935to436924935_436924936_0" from="436924935" to="436924935_436924936_0" speed="13.89" length="100" numLanes="1" /><edge id="436924935to436924935_436924934_0" from="436924935" to="436924935_436924934_0" speed="13.89" length="100" numLanes="1" /><edge id="436924936to436924936_4753931631_0" from="436924936" to="436924936_4753931631_0" speed="13.89" length="100" numLanes="1" /><edge id="436924936to436924936_436924935_0" from="436924936" to="436924936_436924935_0" speed="13.89" length="100" numLanes="1" /><edge id="436925829to4742837055" from="436925829" to="4742837055" speed="13.89" length="100" numLanes="1" /><edge id="436925829to436925829_4742467379_0" from="436925829" to="436925829_4742467379_0" speed="13.89" length="100" numLanes="1" /><edge id="436925829to436925829_4735989416_0" from="436925829" to="436925829_4735989416_0" speed="13.89" length="100" numLanes="1" /><edge id="436925829to436925829_4742372500_0" from="436925829" to="436925829_4742372500_0" speed="13.89" length="100" numLanes="1" /><edge id="692477966to4639341937" from="692477966" to="4639341937" speed="13.89" length="100" numLanes="1" /><edge id="692477966to692477966_11065466946_0" from="692477966" to="692477966_11065466946_0" speed="13.89" length="100" numLanes="1" /><edge id="692477968to4639341937" from="692477968" to="4639341937" speed="13.89" length="100" numLanes="1" /><edge id="692477968to692477968_4741501777_0" from="692477968" to="692477968_4741501777_0" speed="13.89" length="100" numLanes="1" /><edge id="692477969to414929163" from="692477969" to="414929163" speed="13.89" length="100" numLanes="1" /><edge id="692477969to692477969_4641681200_0" from="692477969" to="692477969_4641681200_0" speed="13.89" length="100" numLanes="1" /><edge id="692477969to692477969_436745092_0" from="692477969" to="692477969_436745092_0" speed="13.89" length="100" numLanes="1" /><edge id="692477971to692477971_4634761748_0" from="692477971" to="692477971_4634761748_0" speed="13.89" length="100" numLanes="1" /><edge id="692477971to692477971_414929163_0" from="692477971" to="692477971_414929163_0" speed="13.89" length="100" numLanes="1" /><edge id="692477972to692477972_9568655178_0" from="692477972" to="692477972_9568655178_0" speed="13.89" length="100" numLanes="1" /><edge id="692477972to692477972_4634761748_0" from="692477972" to="692477972_4634761748_0" speed="13.89" length="100" numLanes="1" /><edge id="692477974to9568655212" from="692477974" to="9568655212" speed="13.89" length="100" numLanes="1" /><edge id="692477974to692477974_4741501767_0" from="692477974" to="692477974_4741501767_0" speed="13.89" length="100" numLanes="1" /><edge id="692477975to4906157390" from="692477975" to="4906157390" speed="13.89" length="100" numLanes="1" /><edge id="692477975to692477975_4741501767_0" from="692477975" to="692477975_4741501767_0" speed="13.89" length="100" numLanes="1" /><edge id="692477977to4906157377" from="692477977" to="4906157377" speed="13.89" length="100" numLanes="1" /><edge id="692477977to692477977_4753931588_0" from="692477977" to="692477977_4753931588_0" speed="13.89" length="100" numLanes="1" /><edge id="4060123395to4060123397" from="4060123395" to="4060123397" speed="13.89" length="100" numLanes="1" /><edge id="4060123395to436745069" from="4060123395" to="436745069" speed="13.89" length="100" numLanes="1" /><edge id="4060123397to11065466877" from="4060123397" to="11065466877" speed="13.89" length="100" numLanes="1" /><edge id="4060123397to4060123395" from="4060123397" to="4060123395" speed="13.89" length="100" numLanes="1" /><edge id="4060123397to4060123397_4639627560_0" from="4060123397" to="4060123397_4639627560_0" numLanes="1" speed="13.89" length="100" /><edge id="4060123404to4060123404_4060123406_0" from="4060123404" to="4060123404_4060123406_0" speed="13.89" length="100" numLanes="1" /><edge id="4060123404to4060123404_4742372518_0" from="4060123404" to="4060123404_4742372518_0" speed="13.89" length="100" numLanes="1" /><edge id="4060123406to9568598250" from="4060123406" to="9568598250" speed="13.89" length="100" numLanes="1" /><edge id="4060123406to4060123406_4060123404_0" from="4060123406" to="4060123406_4060123404_0" speed="13.89" length="100" numLanes="1" /><edge id="4060123415to4060123415_4742837056_0" from="4060123415" to="4060123415_4742837056_0" speed="13.89" length="100" numLanes="1" /><edge id="4060123415to4060123415_9568598250_0" from="4060123415" to="4060123415_9568598250_0" speed="13.89" length="100" numLanes="1" /><edge id="4060123415to4060123415_4742837063_0" from="4060123415" to="4060123415_4742837063_0" speed="13.89" length="100" numLanes="1" /><edge id="4060123415to4060123415_4742372512_0" from="4060123415" to="4060123415_4742372512_0" speed="13.89" length="100" numLanes="1" /><edge id="4061234744to4061234745" from="4061234744" to="4061234745" speed="13.89" length="100" numLanes="1" /><edge id="4061234745to4061234746" from="4061234745" to="4061234746" speed="13.89" length="100" numLanes="1" /><edge id="4061234745to4061234744" from="4061234745" to="4061234744" speed="13.89" length="100" numLanes="1" /><edge id="4061234746to4061234747" from="4061234746" to="4061234747" speed="13.89" length="100" numLanes="1" /><edge id="4061234746to4061234745" from="4061234746" to="4061234745" speed="13.89" length="100" numLanes="1" /><edge id="4061234747to4061234748" from="4061234747" to="4061234748" speed="13.89" length="100" numLanes="1" /><edge id="4061234747to4061234746" from="4061234747" to="4061234746" speed="13.89" length="100" numLanes="1" /><edge id="4061234748to4735991720" from="4061234748" to="4735991720" speed="13.89" length="100" numLanes="1" /><edge id="4061234748to4061234747" from="4061234748" to="4061234747" speed="13.89" length="100" numLanes="1" /><edge id="4061247744to436924923" from="4061247744" to="436924923" speed="13.89" length="100" numLanes="1" /><edge id="4061247744to436924922" from="4061247744" to="436924922" speed="13.89" length="100" numLanes="1" /><edge id="4061247744to4061247745" from="4061247744" to="4061247745" speed="13.89" length="100" numLanes="1" /><edge id="4061247745to4061247746" from="4061247745" to="4061247746" speed="13.89" length="100" numLanes="1" /><edge id="4061247745to4061247744" from="4061247745" to="4061247744" speed="13.89" length="100" numLanes="1" /><edge id="4061247746to4061247747" from="4061247746" to="4061247747" speed="13.89" length="100" numLanes="1" /><edge id="4061247746to4061247745" from="4061247746" to="4061247745" speed="13.89" length="100" numLanes="1" /><edge id="4061247747to4061247748" from="4061247747" to="4061247748" speed="13.89" length="100" numLanes="1" /><edge id="4061247747to4061247746" from="4061247747" to="4061247746" speed="13.89" length="100" numLanes="1" /><edge id="4061247748to4061247749" from="4061247748" to="4061247749" speed="13.89" length="100" numLanes="1" /><edge id="4061247748to4061247747" from="4061247748" to="4061247747" speed="13.89" length="100" numLanes="1" /><edge id="4061247749to4061247750" from="4061247749" to="4061247750" speed="13.89" length="100" numLanes="1" /><edge id="4061247749to4061247748" from="4061247749" to="4061247748" speed="13.89" length="100" numLanes="1" /><edge id="4061247750to4061247751" from="4061247750" to="4061247751" speed="13.89" length="100" numLanes="1" /><edge id="4061247750to4061247749" from="4061247750" to="4061247749" speed="13.89" length="100" numLanes="1" /><edge id="4061247751to4061247752" from="4061247751" to="4061247752" speed="13.89" length="100" numLanes="1" /><edge id="4061247751to4061247750" from="4061247751" to="4061247750" speed="13.89" length="100" numLanes="1" /><edge id="4061247752to4061247753" from="4061247752" to="4061247753" speed="13.89" length="100" numLanes="1" /><edge id="4061247752to4061247751" from="4061247752" to="4061247751" speed="13.89" length="100" numLanes="1" /><edge id="4061247753to4061247754" from="4061247753" to="4061247754" speed="13.89" length="100" numLanes="1" /><edge id="4061247753to4061247752" from="4061247753" to="4061247752" speed="13.89" length="100" numLanes="1" /><edge id="4061247754to4061247755" from="4061247754" to="4061247755" speed="13.89" length="100" numLanes="1" /><edge id="4061247754to4061247753" from="4061247754" to="4061247753" speed="13.89" length="100" numLanes="1" /><edge id="4061247755to4061247754" from="4061247755" to="4061247754" speed="13.89" length="100" numLanes="1" /><edge id="4634761715to4634761715_4639342018_0" from="4634761715" to="4634761715_4639342018_0" speed="13.89" length="100" numLanes="1" /><edge id="4634761715to4634761715_436745078_0" from="4634761715" to="4634761715_436745078_0" speed="13.89" length="100" numLanes="1" /><edge id="4634761715to4634761715_11065466945_0" from="4634761715" to="4634761715_11065466945_0" speed="13.89" length="100" numLanes="1" /><edge id="4634761715to4634761715_4742467379_0" from="4634761715" to="4634761715_4742467379_0" speed="13.89" length="100" numLanes="1" /><edge id="4634761716to4639341946" from="4634761716" to="4639341946" speed="13.89" length="100" numLanes="1" /><edge id="4634761716to4634761716_4634761717_0" from="4634761716" to="4634761716_4634761717_0" speed="13.89" length="100" numLanes="1" /><edge id="4634761717to4634761717_4742374360_0" from="4634761717" to="4634761717_4742374360_0" speed="13.89" length="100" numLanes="1" /><edge id="4634761717to4634761717_4634761716_0" from="4634761717" to="4634761717_4634761716_0" speed="13.89" length="100" numLanes="1" /><edge id="4634761718to4634761718_4634761719_0" from="4634761718" to="4634761718_4634761719_0" speed="13.89" length="100" numLanes="1" /><edge id="4634761718to4634761718_4742374360_0" from="4634761718" to="4634761718_4742374360_0" speed="13.89" length="100" numLanes="1" /><edge id="4634761719to4742374361" from="4634761719" to="4742374361" speed="13.89" length="100" numLanes="1" /><edge id="4634761719to4639342053" from="4634761719" to="4639342053" speed="13.89" length="100" numLanes="1" /><edge id="4634761719to4634761719_4634761718_0" from="4634761719" to="4634761719_4634761718_0" speed="13.89" length="100" numLanes="1" /><edge id="4634761719to4634761719_4639342027_0" from="4634761719" to="4634761719_4639342027_0" speed="13.89" length="100" numLanes="1" /><edge id="4634761721to4742374367" from="4634761721" to="4742374367" speed="13.89" length="100" numLanes="1" /><edge id="4634761721to4634761721_4639342087_0" from="4634761721" to="4634761721_4639342087_0" speed="13.89" length="100" numLanes="1" /><edge id="4634761722to4742374365" from="4634761722" to="4742374365" speed="13.89" length="100" numLanes="1" /><edge id="4634761722to4742374366" from="4634761722" to="4742374366" speed="13.89" length="100" numLanes="1" /><edge id="4634761722to4634761722_4639342095_0" from="4634761722" to="4634761722_4639342095_0" speed="13.89" length="100" numLanes="1" /><edge id="4634761723to4742374365" from="4634761723" to="4742374365" speed="13.89" length="100" numLanes="1" /><edge id="4634761723to4634761723_4634761724_0" from="4634761723" to="4634761723_4634761724_0" speed="13.89" length="100" numLanes="1" /><edge id="4634761724to10123338389" from="4634761724" to="10123338389" speed="13.89" length="100" numLanes="1" /><edge id="4634761724to4634761724_4634761723_0" from="4634761724" to="4634761724_4634761723_0" speed="13.89" length="100" numLanes="1" /><edge id="4634761724to4634761724_4639342098_0" from="4634761724" to="4634761724_4639342098_0" speed="13.89" length="100" numLanes="1" /><edge id="4634761725to4634761725_4634761726_0" from="4634761725" to="4634761725_4634761726_0" speed="13.89" length="100" numLanes="1" /><edge id="4634761725to4634761725_10123338389_0" from="4634761725" to="4634761725_10123338389_0" speed="13.89" length="100" numLanes="1" /><edge id="4634761725to4634761725_4639342106_0" from="4634761725" to="4634761725_4639342106_0" speed="13.89" length="100" numLanes="1" /><edge id="4634761726to4634761726_4634761727_0" from="4634761726" to="4634761726_4634761727_0" speed="13.89" length="100" numLanes="1" /><edge id="4634761726to4634761726_4634761725_0" from="4634761726" to="4634761726_4634761725_0" speed="13.89" length="100" numLanes="1" /><edge id="4634761726to4634761726_4639341992_0" from="4634761726" to="4634761726_4639341992_0" speed="13.89" length="100" numLanes="1" /><edge id="4634761726to4634761726_4639341994_0" from="4634761726" to="4634761726_4639341994_0" speed="13.89" length="100" numLanes="1" /><edge id="4634761727to4634761727_4735991668_0" from="4634761727" to="4634761727_4735991668_0" speed="13.89" length="100" numLanes="1" /><edge id="4634761727to4634761727_4634761726_0" from="4634761727" to="4634761727_4634761726_0" speed="13.89" length="100" numLanes="1" /><edge id="4634761727to4634761727_4742374371_0" from="4634761727" to="4634761727_4742374371_0" speed="13.89" length="100" numLanes="1" /><edge id="4634761727to4634761727_4742374372_0" from="4634761727" to="4634761727_4742374372_0" speed="13.89" length="100" numLanes="1" /><edge id="4634761728to4735991856" from="4634761728" to="4735991856" speed="13.89" length="100" numLanes="1" /><edge id="4634761728to4634761728_4753931589_0" from="4634761728" to="4634761728_4753931589_0" speed="13.89" length="100" numLanes="1" /><edge id="4634761728to4634761728_4735991668_0" from="4634761728" to="4634761728_4735991668_0" speed="13.89" length="100" numLanes="1" /><edge id="4634761728to4634761728_4735991857_0" from="4634761728" to="4634761728_4735991857_0" speed="13.89" length="100" numLanes="1" /><edge id="4634761729to4634761729_9568655212_0" from="4634761729" to="4634761729_9568655212_0" speed="13.89" length="100" numLanes="1" /><edge id="4634761729to4634761729_4641681196_0" from="4634761729" to="4634761729_4641681196_0" speed="13.89" length="100" numLanes="1" /><edge id="4634761729to4634761729_4641681195_0" from="4634761729" to="4634761729_4641681195_0" speed="13.89" length="100" numLanes="1" /><edge id="4634761730to9568598256" from="4634761730" to="9568598256" speed="13.89" length="100" numLanes="1" /><edge id="4634761730to4634761730_414929417_0" from="4634761730" to="4634761730_414929417_0" speed="13.89" length="100" numLanes="1" /><edge id="4634761730to4634761730_5585810685_0" from="4634761730" to="4634761730_5585810685_0" speed="13.89" length="100" numLanes="1" /><edge id="4634761735to11073994194" from="4634761735" to="11073994194" speed="13.89" length="100" numLanes="1" /><edge id="4634761735to4634761735_4741501514_0" from="4634761735" to="4634761735_4741501514_0" speed="13.89" length="100" numLanes="1" /><edge id="4634761735to4634761735_4639341997_0" from="4634761735" to="4634761735_4639341997_0" speed="13.89" length="100" numLanes="1" /><edge id="4634761735to4634761735_4735991625_0" from="4634761735" to="4634761735_4735991625_0" speed="13.89" length="100" numLanes="1" /><edge id="4634761747to4634761747_4634761748_0" from="4634761747" to="4634761747_4634761748_0" speed="13.89" length="100" numLanes="1" /><edge id="4634761747to4634761747_414929162_0" from="4634761747" to="4634761747_414929162_0" speed="13.89" length="100" numLanes="1" /><edge id="4634761748to4634761748_4634761747_0" from="4634761748" to="4634761748_4634761747_0" speed="13.89" length="100" numLanes="1" /><edge id="4634761748to4634761748_692477972_0" from="4634761748" to="4634761748_692477972_0" speed="13.89" length="100" numLanes="1" /><edge id="4634761748to4634761748_692477971_0" from="4634761748" to="4634761748_692477971_0" speed="13.89" length="100" numLanes="1" /><edge id="4639341927to436745095" from="4639341927" to="436745095" speed="13.89" length="100" numLanes="1" /><edge id="4639341927to4639341927_4641680984_0" from="4639341927" to="4639341927_4641680984_0" speed="13.89" length="100" numLanes="1" /><edge id="4639341927to4639341927_436745094_0" from="4639341927" to="4639341927_436745094_0" speed="13.89" length="100" numLanes="1" /><edge id="4639341936to4639341936_414929162_0" from="4639341936" to="4639341936_414929162_0" speed="13.89" length="100" numLanes="1" /><edge id="4639341936to4639341936_436745093_0" from="4639341936" to="4639341936_436745093_0" speed="13.89" length="100" numLanes="1" /><edge id="4639341937to692477968" from="4639341937" to="692477968" speed="13.89" length="100" numLanes="1" /><edge id="4639341937to692477966" from="4639341937" to="692477966" speed="13.89" length="100" numLanes="1" /><edge id="4639341937to4639341937_4641680984_0" from="4639341937" to="4639341937_4641680984_0" speed="13.89" length="100" numLanes="1" /><edge id="4639341945to4742374358" from="4639341945" to="4742374358" speed="13.89" length="100" numLanes="1" /><edge id="4639341945to4639341945_4742374353_0" from="4639341945" to="4639341945_4742374353_0" speed="13.89" length="100" numLanes="1" /><edge id="4639341945to4639341945_10123338381_0" from="4639341945" to="4639341945_10123338381_0" speed="13.89" length="100" numLanes="1" /><edge id="4639341945to4639341945_4751016049_0" from="4639341945" to="4639341945_4751016049_0" speed="13.89" length="100" numLanes="1" /><edge id="4639341946to4634761716" from="4639341946" to="4634761716" speed="13.89" length="100" numLanes="1" /><edge id="4639341946to4742374355" from="4639341946" to="4742374355" speed="13.89" length="100" numLanes="1" /><edge id="4639341946to4639341946_4639342018_0" from="4639341946" to="4639341946_4639342018_0" speed="13.89" length="100" numLanes="1" /><edge id="4639341946to4639341946_4639342050_0" from="4639341946" to="4639341946_4639342050_0" speed="13.89" length="100" numLanes="1" /><edge id="4639341948to11065466959" from="4639341948" to="11065466959" speed="13.89" length="100" numLanes="1" /><edge id="4639341948to4742837059" from="4639341948" to="4742837059" speed="13.89" length="100" numLanes="1" /><edge id="4639341948to4639341948_436924661_0" from="4639341948" to="4639341948_436924661_0" speed="13.89" length="100" numLanes="1" /><edge id="4639341948to4639341948_4742383648_0" from="4639341948" to="4639341948_4742383648_0" speed="13.89" length="100" numLanes="1" /><edge id="4639341948to4639341948_4735991823_0" from="4639341948" to="4639341948_4735991823_0" speed="13.89" length="100" numLanes="1" /><edge id="4639341949to4639341971" from="4639341949" to="4639341971" speed="13.89" length="100" numLanes="1" /><edge id="4639341949to4639341966" from="4639341949" to="4639341966" speed="13.89" length="100" numLanes="1" /><edge id="4639341949to4639341949_4742383648_0" from="4639341949" to="4639341949_4742383648_0" speed="13.89" length="100" numLanes="1" /><edge id="4639341950to4639341951" from="4639341950" to="4639341951" speed="13.89" length="100" numLanes="1" /><edge id="4639341950to4639341971" from="4639341950" to="4639341971" speed="13.89" length="100" numLanes="1" /><edge id="4639341951to4639341952" from="4639341951" to="4639341952" speed="13.89" length="100" numLanes="1" /><edge id="4639341951to4639341950" from="4639341951" to="4639341950" speed="13.89" length="100" numLanes="1" /><edge id="4639341952to4735991846" from="4639341952" to="4735991846" speed="13.89" length="100" numLanes="1" /><edge id="4639341952to4639341951" from="4639341952" to="4639341951" speed=