<?xml version="1.0" encoding="UTF-8"?>

<!-- generated on 2025-03-03 22:38:28 by Eclipse SUMO netconvert Version 1.20.0
<configuration xmlns:xsi="http://www.w3.org/2001/XMLSchema-instance" xsi:noNamespaceSchemaLocation="http://sumo.dlr.de/xsd/netconvertConfiguration.xsd">

    <input>
        <node-files value="data/hwaseong_drive.nod.xml"/>
        <edge-files value="data/hwaseong_drive.edg.xml"/>
    </input>

    <output>
        <output-file value="data/hwaseong_drive.net.xml"/>
    </output>

    <processing>
        <geometry.remove value="true"/>
    </processing>

</configuration>
-->

<net version="1.20" junctionCornerDetail="5" limitTurnSpeed="5.50" xmlns:xsi="http://www.w3.org/2001/XMLSchema-instance" xsi:noNamespaceSchemaLocation="http://sumo.dlr.de/xsd/net_file.xsd">

    <location netOffset="-126.82,-37.20" convBoundary="0.00,0.00,0.02,0.02" origBoundary="126.82,37.20,126.84,37.22" projParameter="!"/>

    <edge id=":1104_0" function="internal">
        <lane id=":1104_0_0" index="0" speed="5.17" length="2.38" shape="-0.33,1.57 -1.93,-0.18"/>
    </edge>
    <edge id=":1104_1" function="internal">
        <lane id=":1104_1_0" index="0" speed="13.89" length="0.40" shape="-1.55,-0.32 -1.93,-0.18"/>
    </edge>
    <edge id=":1105_0" function="internal">
        <lane id=":1105_0_0" index="0" speed="4.16" length="1.21" shape="-0.87,-1.32 -1.55,-0.32"/>
    </edge>
    <edge id=":1105_1" function="internal">
        <lane id=":1105_1_0" index="0" speed="13.89" length="1.47" shape="-1.26,-1.76 -1.55,-0.32"/>
    </edge>
    <edge id=":1116_0" function="internal">
        <lane id=":1116_0_0" index="0" speed="4.08" length="1.34" shape="0.88,1.35 1.60,0.23"/>
    </edge>
    <edge id=":1116_1" function="internal">
        <lane id=":1116_1_0" index="0" speed="13.89" length="1.62" shape="1.28,1.82 1.60,0.23"/>
    </edge>
    <edge id=":1117_0" function="internal">
        <lane id=":1117_0_0" index="0" speed="13.89" length="0.50" shape="1.60,0.23 1.57,0.73"/>
    </edge>
    <edge id=":1117_1" function="internal">
        <lane id=":1117_1_0" index="0" speed="4.28" length="2.33" shape="0.70,-1.43 1.57,0.73"/>
    </edge>
    <edge id=":118_0" function="internal">
        <lane id=":118_0_0" index="0" speed="13.89" length="1.42" shape="-0.72,1.44 0.56,2.03"/>
    </edge>
    <edge id=":118_1" function="internal">
        <lane id=":118_1_0" index="0" speed="13.89" length="0.78" shape="-0.10,1.61 0.56,2.03"/>
    </edge>
    <edge id=":1180_0" function="internal">
        <lane id=":1180_0_0" index="0" speed="13.89" length="0.88" shape="0.05,-1.60 0.92,-1.64"/>
    </edge>
    <edge id=":1180_1" function="internal">
        <lane id=":1180_1_0" index="0" speed="3.42" length="2.45" shape="-1.38,-0.79 0.92,-1.64"/>
    </edge>
    <edge id=":120_0" function="internal">
        <lane id=":120_0_0" index="0" speed="13.89" length="1.72" shape="0.93,1.88 -0.72,1.44"/>
    </edge>
    <edge id=":120_1" function="internal">
        <lane id=":120_1_0" index="0" speed="6.40" length="17.83" shape="0.93,1.88 -5.26,0.17 -7.15,-0.96 -4.74,-1.53 1.98,-1.52"/>
    </edge>
    <edge id=":1311_0" function="internal">
        <lane id=":1311_0_0" index="0" speed="5.22" length="1.89" shape="1.02,-1.47 1.58,0.34"/>
    </edge>
    <edge id=":1311_1" function="internal">
        <lane id=":1311_1_0" index="0" speed="3.66" length="3.33" shape="1.02,-1.47 -0.33,1.57"/>
    </edge>
    <edge id=":1312_0" function="internal">
        <lane id=":1312_0_0" index="0" speed="4.09" length="1.32" shape="1.58,0.34 1.29,-0.95"/>
    </edge>
    <edge id=":1312_1" function="internal">
        <lane id=":1312_1_0" index="0" speed="13.89" length="1.31" shape="1.58,0.34 1.32,1.62"/>
    </edge>
    <edge id=":1322_0" function="internal">
        <lane id=":1322_0_0" index="0" speed="4.24" length="1.12" shape="-0.21,1.59 0.88,1.35"/>
    </edge>
    <edge id=":1322_1" function="internal">
        <lane id=":1322_1_0" index="0" speed="13.89" length="0.10" shape="-0.21,1.59 -0.28,1.58"/>
    </edge>
    <edge id=":1323_0" function="internal">
        <lane id=":1323_0_0" index="0" speed="3.36" length="3.15" shape="0.78,-1.39 -0.21,1.59"/>
    </edge>
    <edge id=":1323_1" function="internal">
        <lane id=":1323_1_0" index="0" speed="3.24" length="3.20" shape="0.78,-1.39 -0.75,1.41"/>
    </edge>
    <edge id=":1460_0" function="internal">
        <lane id=":1460_0_0" index="0" speed="13.89" length="0.62" shape="0.38,-1.65 0.90,-1.32"/>
    </edge>
    <edge id=":1460_1" function="internal">
        <lane id=":1460_1_0" index="0" speed="4.23" length="1.14" shape="-0.20,-1.58 0.90,-1.32"/>
    </edge>
    <edge id=":1461_0" function="internal">
        <lane id=":1461_0_0" index="0" speed="3.65" length="2.23" shape="-1.46,0.64 0.56,-0.31"/>
    </edge>
    <edge id=":1461_2" function="internal">
        <lane id=":1461_2_0" index="0" speed="3.65" length="1.33" shape="0.56,-0.31 1.76,-0.88"/>
    </edge>
    <edge id=":1461_1" function="internal">
        <lane id=":1461_1_0" index="0" speed="13.89" length="0.96" shape="0.90,-1.32 1.76,-0.88"/>
    </edge>
    <edge id=":1491_0" function="internal">
        <lane id=":1491_0_0" index="0" speed="13.89" length="1.76" shape="1.93,-0.79 0.35,-1.55"/>
    </edge>
    <edge id=":1491_1" function="internal">
        <lane id=":1491_1_0" index="0" speed="13.89" length="0.59" shape="1.93,-0.79 1.34,-0.88"/>
    </edge>
    <edge id=":1493_0" function="internal">
        <lane id=":1493_0_0" index="0" speed="3.71" length="2.23" shape="-1.28,0.95 0.39,-0.52"/>
    </edge>
    <edge id=":1493_2" function="internal">
        <lane id=":1493_2_0" index="0" speed="3.71" length="1.33" shape="0.39,-0.52 1.40,-1.39"/>
    </edge>
    <edge id=":1493_1" function="internal">
        <lane id=":1493_1_0" index="0" speed="13.89" length="1.06" shape="0.35,-1.55 1.40,-1.39"/>
    </edge>
    <edge id=":1502_0" function="internal">
        <lane id=":1502_0_0" index="0" speed="13.89" length="1.38" shape="1.59,-1.36 0.23,-1.57"/>
    </edge>
    <edge id=":1502_1" function="internal">
        <lane id=":1502_1_0" index="0" speed="13.89" length="0.49" shape="1.59,-1.36 1.20,-1.06"/>
    </edge>
    <edge id=":1503_0" function="internal">
        <lane id=":1503_0_0" index="0" speed="4.23" length="1.13" shape="0.23,-1.57 -0.87,-1.32"/>
    </edge>
    <edge id=":1503_1" function="internal">
        <lane id=":1503_1_0" index="0" speed="13.89" length="1.70" shape="0.23,-1.57 1.91,-1.33"/>
    </edge>
    <edge id=":1512_0" function="internal">
        <lane id=":1512_0_0" index="0" speed="4.15" length="1.23" shape="1.29,-0.95 0.23,-1.58"/>
    </edge>
    <edge id=":1512_1" function="internal">
        <lane id=":1512_1_0" index="0" speed="13.89" length="1.90" shape="2.11,-1.30 0.23,-1.58"/>
    </edge>
    <edge id=":1513_0" function="internal">
        <lane id=":1513_0_0" index="0" speed="3.24" length="1.60" shape="-0.75,1.41 0.02,0.01"/>
    </edge>
    <edge id=":1513_2" function="internal">
        <lane id=":1513_2_0" index="0" speed="3.24" length="1.60" shape="0.02,0.01 0.78,-1.39"/>
    </edge>
    <edge id=":1513_1" function="internal">
        <lane id=":1513_1_0" index="0" speed="13.89" length="0.58" shape="0.23,-1.58 0.78,-1.39"/>
    </edge>
    <edge id=":152_0" function="internal">
        <lane id=":152_0_0" index="0" speed="3.03" length="1.29" shape="1.56,0.93 1.56,1.33 1.53,1.68 1.41,1.90 1.13,1.93"/>
    </edge>
    <edge id=":152_1" function="internal">
        <lane id=":152_1_0" index="0" speed="4.11" length="3.50" shape="1.56,0.93 1.34,1.39 0.74,1.60 -0.23,1.54 -1.57,1.22"/>
    </edge>
    <edge id=":159_0" function="internal">
        <lane id=":159_0_0" index="0" speed="3.86" length="2.73" shape="0.47,-1.52 -1.62,0.23"/>
    </edge>
    <edge id=":159_1" function="internal">
        <lane id=":159_1_0" index="0" speed="3.11" length="1.08" shape="-1.80,1.15 -1.97,1.01 -1.90,0.81 -1.73,0.55 -1.62,0.23"/>
    </edge>
    <edge id=":221_0" function="internal">
        <lane id=":221_0_0" index="0" speed="13.89" length="0.26" shape="-1.60,0.03 -1.57,-0.23"/>
    </edge>
    <edge id=":221_1" function="internal">
        <lane id=":221_1_0" index="0" speed="3.68" length="2.73" shape="-1.60,0.03 0.70,-1.43"/>
    </edge>
    <edge id=":222_0" function="internal">
        <lane id=":222_0_0" index="0" speed="4.13" length="1.26" shape="-1.57,-0.23 -1.25,0.99"/>
    </edge>
    <edge id=":222_1" function="internal">
        <lane id=":222_1_0" index="0" speed="13.89" length="1.36" shape="-1.57,-0.23 -1.30,-1.56"/>
    </edge>
    <edge id=":252_0" function="internal">
        <lane id=":252_0_0" index="0" speed="3.80" length="3.03" shape="-0.22,1.60 -1.13,-1.29"/>
    </edge>
    <edge id=":252_1" function="internal">
        <lane id=":252_1_0" index="0" speed="4.78" length="3.77" shape="-0.08,1.98 -0.88,1.20 -1.32,0.40 -1.40,-0.44 -1.13,-1.29"/>
    </edge>
    <edge id=":278_0" function="internal">
        <lane id=":278_0_0" index="0" speed="13.89" length="0.59" shape="-1.03,-1.47 -1.29,-0.94"/>
    </edge>
    <edge id=":278_1" function="internal">
        <lane id=":278_1_0" index="0" speed="3.41" length="1.30" shape="-1.03,-1.47 0.26,-1.57"/>
    </edge>
    <edge id=":280_0" function="internal">
        <lane id=":280_0_0" index="0" speed="3.73" length="1.94" shape="-0.25,1.59 -0.47,-0.34"/>
    </edge>
    <edge id=":280_2" function="internal">
        <lane id=":280_2_0" index="0" speed="3.73" length="1.34" shape="-0.47,-0.34 -0.63,-1.67"/>
    </edge>
    <edge id=":280_1" function="internal">
        <lane id=":280_1_0" index="0" speed="13.89" length="0.99" shape="-1.29,-0.94 -0.63,-1.67"/>
    </edge>
    <edge id=":295_0" function="internal">
        <lane id=":295_0_0" index="0" speed="13.89" length="0.92" shape="-0.49,-1.82 -1.11,-1.14"/>
    </edge>
    <edge id=":295_1" function="internal">
        <lane id=":295_1_0" index="0" speed="13.89" length="0.84" shape="-0.49,-1.82 0.30,-1.56"/>
    </edge>
    <edge id=":297_0" function="internal">
        <lane id=":297_0_0" index="0" speed="3.72" length="1.98" shape="-0.30,1.58 -0.41,-0.40"/>
    </edge>
    <edge id=":297_2" function="internal">
        <lane id=":297_2_0" index="0" speed="3.72" length="1.33" shape="-0.41,-0.40 -0.49,-1.73"/>
    </edge>
    <edge id=":297_1" function="internal">
        <lane id=":297_1_0" index="0" speed="13.89" length="0.86" shape="-1.11,-1.14 -0.49,-1.73"/>
    </edge>
    <edge id=":316_0" function="internal">
        <lane id=":316_0_0" index="0" speed="13.89" length="1.08" shape="-0.34,-1.87 -1.13,-1.13"/>
    </edge>
    <edge id=":316_1" function="internal">
        <lane id=":316_1_0" index="0" speed="13.89" length="0.73" shape="-0.34,-1.87 0.32,-1.56"/>
    </edge>
    <edge id=":317_0" function="internal">
        <lane id=":317_0_0" index="0" speed="13.89" length="0.12" shape="-1.13,-1.13 -1.04,-1.21"/>
    </edge>
    <edge id=":317_1" function="internal">
        <lane id=":317_1_0" index="0" speed="3.93" length="1.66" shape="-1.13,-1.13 0.48,-1.52"/>
    </edge>
    <edge id=":319_0" function="internal">
        <lane id=":319_0_0" index="0" speed="13.89" length="0.82" shape="1.04,1.22 0.45,1.78"/>
    </edge>
    <edge id=":319_1" function="internal">
        <lane id=":319_1_0" index="0" speed="3.74" length="2.01" shape="0.32,-1.56 0.40,0.45"/>
    </edge>
    <edge id=":319_2" function="internal">
        <lane id=":319_2_0" index="0" speed="3.74" length="1.34" shape="0.40,0.45 0.45,1.78"/>
    </edge>
    <edge id=":338_0" function="internal">
        <lane id=":338_0_0" index="0" speed="13.89" length="1.12" shape="0.30,1.92 1.12,1.15"/>
    </edge>
    <edge id=":338_1" function="internal">
        <lane id=":338_1_0" index="0" speed="13.89" length="0.69" shape="0.30,1.92 -0.30,1.58"/>
    </edge>
    <edge id=":340_0" function="internal">
        <lane id=":340_0_0" index="0" speed="13.89" length="0.69" shape="1.12,1.15 0.66,1.66"/>
    </edge>
    <edge id=":340_1" function="internal">
        <lane id=":340_1_0" index="0" speed="3.74" length="1.90" shape="0.30,-1.56 0.51,0.33"/>
    </edge>
    <edge id=":340_2" function="internal">
        <lane id=":340_2_0" index="0" speed="3.74" length="1.34" shape="0.51,0.33 0.66,1.66"/>
    </edge>
    <edge id=":355_0" function="internal">
        <lane id=":355_0_0" index="0" speed="13.89" length="1.14" shape="0.52,1.81 1.29,0.96"/>
    </edge>
    <edge id=":355_1" function="internal">
        <lane id=":355_1_0" index="0" speed="13.89" length="0.80" shape="0.52,1.81 -0.25,1.59"/>
    </edge>
    <edge id=":357_0" function="internal">
        <lane id=":357_0_0" index="0" speed="13.89" length="1.21" shape="1.29,0.96 1.86,-0.10"/>
    </edge>
    <edge id=":357_1" function="internal">
        <lane id=":357_1_0" index="0" speed="3.43" length="0.75" shape="0.26,-1.57 0.81,-1.07"/>
    </edge>
    <edge id=":357_2" function="internal">
        <lane id=":357_2_0" index="0" speed="3.43" length="1.42" shape="0.81,-1.07 1.86,-0.10"/>
    </edge>
    <edge id=":37_0" function="internal">
        <lane id=":37_0_0" index="0" speed="13.89" length="0.98" shape="1.05,2.17 0.07,2.10"/>
    </edge>
    <edge id=":37_1" function="internal">
        <lane id=":37_1_0" index="0" speed="3.88" length="5.24" shape="1.05,2.17 -0.31,1.30 -0.77,0.42 -0.34,-0.49 0.98,-1.41"/>
    </edge>
    <edge id=":383_0" function="internal">
        <lane id=":383_0_0" index="0" speed="13.89" length="0.66" shape="1.77,0.07 2.40,-0.15"/>
    </edge>
    <edge id=":383_1" function="internal">
        <lane id=":383_1_0" index="0" speed="4.32" length="2.50" shape="1.77,0.07 -0.22,1.60"/>
    </edge>
    <edge id=":431_0" function="internal">
        <lane id=":431_0_0" index="0" speed="13.89" length="2.50" shape="2.56,-0.02 0.54,-1.50"/>
    </edge>
    <edge id=":431_1" function="internal">
        <lane id=":431_1_0" index="0" speed="13.89" length="0.65" shape="1.18,-1.37 0.54,-1.50"/>
    </edge>
    <edge id=":456_0" function="internal">
        <lane id=":456_0_0" index="0" speed="13.89" length="0.10" shape="0.72,-1.42 0.64,-1.46"/>
    </edge>
    <edge id=":456_1" function="internal">
        <lane id=":456_1_0" index="0" speed="12.10" length="68.89" shape="0.72,-1.42 16.43,-15.75 29.30,-18.63 39.32,-10.07 46.51,9.94"/>
    </edge>
    <edge id=":457_0" function="internal">
        <lane id=":457_0_0" index="0" speed="4.64" length="0.70" shape="-1.52,0.49 -1.30,-0.17"/>
    </edge>
    <edge id=":457_1" function="internal">
        <lane id=":457_1_0" index="0" speed="3.49" length="2.94" shape="-1.52,0.49 0.72,-1.42"/>
    </edge>
    <edge id=":457_4" function="internal">
        <lane id=":457_4_0" index="0" speed="4.64" length="1.40" shape="-1.30,-0.17 -0.86,-1.51"/>
    </edge>
    <edge id=":457_2" function="internal">
        <lane id=":457_2_0" index="0" speed="3.47" length="1.50" shape="0.64,-1.46 -0.86,-1.51"/>
    </edge>
    <edge id=":457_3" function="internal">
        <lane id=":457_3_0" index="0" speed="13.89" length="0.10" shape="0.64,-1.46 0.72,-1.42"/>
    </edge>
    <edge id=":458_0" function="internal">
        <lane id=":458_0_0" index="0" speed="3.26" length="1.14" shape="0.28,2.07 1.04,1.22"/>
    </edge>
    <edge id=":458_1" function="internal">
        <lane id=":458_1_0" index="0" speed="13.89" length="1.76" shape="0.28,2.07 -1.18,1.08"/>
    </edge>
    <edge id=":458_2" function="internal">
        <lane id=":458_2_0" index="0" speed="13.89" length="0.55" shape="1.39,0.80 1.04,1.22"/>
    </edge>
    <edge id=":458_3" function="internal">
        <lane id=":458_3_0" index="0" speed="3.63" length="1.17" shape="1.39,0.80 0.23,0.93"/>
    </edge>
    <edge id=":458_4" function="internal">
        <lane id=":458_4_0" index="0" speed="3.63" length="1.41" shape="0.23,0.93 -1.18,1.08"/>
    </edge>
    <edge id=":478_0" function="internal">
        <lane id=":478_0_0" index="0" speed="13.89" length="3.20" shape="-2.25,0.47 0.45,2.18"/>
    </edge>
    <edge id=":478_1" function="internal">
        <lane id=":478_1_0" index="0" speed="3.38" length="1.30" shape="1.23,-1.03 0.92,0.24"/>
    </edge>
    <edge id=":478_2" function="internal">
        <lane id=":478_2_0" index="0" speed="3.38" length="2.00" shape="0.92,0.24 0.45,2.18"/>
    </edge>
    <edge id=":480_0" function="internal">
        <lane id=":480_0_0" index="0" speed="13.89" length="1.43" shape="-0.88,1.34 -2.08,0.57"/>
    </edge>
    <edge id=":480_1" function="internal">
        <lane id=":480_1_0" index="0" speed="13.89" length="2.88" shape="-0.88,1.34 -2.73,-0.86"/>
    </edge>
    <edge id=":520_0" function="internal">
        <lane id=":520_0_0" index="0" speed="13.89" length="1.39" shape="-2.05,0.60 -0.87,1.34"/>
    </edge>
    <edge id=":520_1" function="internal">
        <lane id=":520_1_0" index="0" speed="3.53" length="1.88" shape="2.87,1.03 1.00,1.18"/>
    </edge>
    <edge id=":520_2" function="internal">
        <lane id=":520_2_0" index="0" speed="3.53" length="1.88" shape="1.00,1.18 -0.87,1.34"/>
    </edge>
    <edge id=":521_0" function="internal">
        <lane id=":521_0_0" index="0" speed="13.89" length="1.19" shape="-0.88,1.34 -1.88,0.71"/>
    </edge>
    <edge id=":521_1" function="internal">
        <lane id=":521_1_0" index="0" speed="13.89" length="0.47" shape="-1.68,1.11 -1.68,0.99 -1.72,0.88 -1.79,0.78 -1.88,0.71"/>
    </edge>
    <edge id=":522_0" function="internal">
        <lane id=":522_0_0" index="0" speed="6.41" length="2.64" shape="0.45,1.55 2.27,-0.36"/>
    </edge>
    <edge id=":522_1" function="internal">
        <lane id=":522_1_0" index="0" speed="13.89" length="0.69" shape="1.58,-0.29 2.27,-0.36"/>
    </edge>
    <edge id=":585_0" function="internal">
        <lane id=":585_0_0" index="0" speed="3.37" length="1.89" shape="2.15,-0.20 0.71,-1.43"/>
    </edge>
    <edge id=":585_1" function="internal">
        <lane id=":585_1_0" index="0" speed="5.91" length="2.53" shape="2.15,-0.20 0.35,1.58"/>
    </edge>
    <edge id=":585_2" function="internal">
        <lane id=":585_2_0" index="0" speed="13.89" length="0.10" shape="0.72,-1.42 0.71,-1.43"/>
    </edge>
    <edge id=":585_3" function="internal">
        <lane id=":585_3_0" index="0" speed="3.46" length="1.57" shape="0.72,-1.42 0.53,0.14"/>
    </edge>
    <edge id=":585_4" function="internal">
        <lane id=":585_4_0" index="0" speed="3.46" length="1.44" shape="0.53,0.14 0.35,1.58"/>
    </edge>
    <edge id=":586_0" function="internal">
        <lane id=":586_0_0" index="0" speed="13.89" length="0.13" shape="0.71,-1.43 0.59,-1.48"/>
    </edge>
    <edge id=":586_1" function="internal">
        <lane id=":586_1_0" index="0" speed="13.89" length="0.54" shape="0.06,-1.59 0.59,-1.48"/>
    </edge>
    <edge id=":62_0" function="internal">
        <lane id=":62_0_0" index="0" speed="13.89" length="49.67" shape="43.87,20.25 89.97,38.75"/>
    </edge>
    <edge id=":62_1" function="internal">
        <lane id=":62_1_0" index="0" speed="13.89" length="52.32" shape="46.31,9.91 89.97,38.75"/>
    </edge>
    <edge id=":63_0" function="internal">
        <lane id=":63_0_0" index="0" speed="13.89" length="48.64" shape="-0.76,1.42 44.05,20.33"/>
    </edge>
    <edge id=":63_1" function="internal">
        <lane id=":63_1_0" index="0" speed="13.89" length="47.55" shape="0.35,1.58 44.05,20.33"/>
    </edge>
    <edge id=":639_0" function="internal">
        <lane id=":639_0_0" index="0" speed="13.89" length="0.10" shape="0.77,-1.39 0.74,-1.41"/>
    </edge>
    <edge id=":639_1" function="internal">
        <lane id=":639_1_0" index="0" speed="3.35" length="3.13" shape="0.77,-1.39 -0.10,1.61"/>
    </edge>
    <edge id=":64_0" function="internal">
        <lane id=":64_0_0" index="0" speed="13.89" length="0.10" shape="-0.70,1.45 -0.76,1.42"/>
    </edge>
    <edge id=":64_1" function="internal">
        <lane id=":64_1_0" index="0" speed="4.13" length="1.27" shape="-0.70,1.45 -1.52,0.49"/>
    </edge>
    <edge id=":641_0" function="internal">
        <lane id=":641_0_0" index="0" speed="13.89" length="0.48" shape="0.74,-1.41 0.28,-1.56"/>
    </edge>
    <edge id=":641_1" function="internal">
        <lane id=":641_1_0" index="0" speed="13.89" length="1.90" shape="2.18,-1.51 0.28,-1.56"/>
    </edge>
    <edge id=":65_0" function="internal">
        <lane id=":65_0_0" index="0" speed="13.89" length="1.19" shape="0.38,1.95 -0.70,1.45"/>
    </edge>
    <edge id=":65_1" function="internal">
        <lane id=":65_1_0" index="0" speed="3.50" length="3.55" shape="0.38,1.95 0.06,-1.59"/>
    </edge>
    <edge id=":664_0" function="internal">
        <lane id=":664_0_0" index="0" speed="3.74" length="2.22" shape="-1.18,1.08 -1.12,-1.13"/>
    </edge>
    <edge id=":664_1" function="internal">
        <lane id=":664_1_0" index="0" speed="13.89" length="0.11" shape="-1.04,-1.21 -1.12,-1.13"/>
    </edge>
    <edge id=":665_0" function="internal">
        <lane id=":665_0_0" index="0" speed="13.89" length="0.10" shape="-1.12,-1.13 -1.18,-1.07"/>
    </edge>
    <edge id=":665_1" function="internal">
        <lane id=":665_1_0" index="0" speed="13.89" length="0.51" shape="-1.46,-0.64 -1.18,-1.07"/>
    </edge>
    <edge id=":696_0" function="internal">
        <lane id=":696_0_0" index="0" speed="13.89" length="0.10" shape="-1.04,-1.21 -1.10,-1.15"/>
    </edge>
    <edge id=":696_1" function="internal">
        <lane id=":696_1_0" index="0" speed="13.89" length="0.81" shape="-1.04,-1.21 -0.31,-1.56"/>
    </edge>
    <edge id=":698_0" function="internal">
        <lane id=":698_0_0" index="0" speed="3.39" length="1.23" shape="0.33,1.57 -0.65,0.83"/>
    </edge>
    <edge id=":698_2" function="internal">
        <lane id=":698_2_0" index="0" speed="3.39" length="1.77" shape="-0.65,0.83 -2.06,-0.24"/>
    </edge>
    <edge id=":698_1" function="internal">
        <lane id=":698_1_0" index="0" speed="13.89" length="1.33" shape="-1.10,-1.15 -2.06,-0.24"/>
    </edge>
    <edge id=":733_0" function="internal">
        <lane id=":733_0_0" index="0" speed="5.37" length="2.31" shape="-1.92,-0.38 0.05,-1.60"/>
    </edge>
    <edge id=":733_1" function="internal">
        <lane id=":733_1_0" index="0" speed="4.41" length="2.97" shape="-1.92,-0.38 0.90,-1.33"/>
    </edge>
    <edge id=":734_0" function="internal">
        <lane id=":734_0_0" index="0" speed="4.68" length="1.01" shape="0.30,1.57 1.18,1.09"/>
    </edge>
    <edge id=":734_1" function="internal">
        <lane id=":734_1_0" index="0" speed="3.63" length="1.08" shape="0.90,-1.33 1.02,-0.26"/>
    </edge>
    <edge id=":734_2" function="internal">
        <lane id=":734_2_0" index="0" speed="3.63" length="1.36" shape="1.02,-0.26 1.18,1.09"/>
    </edge>
    <edge id=":768_0" function="internal">
        <lane id=":768_0_0" index="0" speed="13.89" length="0.11" shape="1.04,1.23 1.11,1.16"/>
    </edge>
    <edge id=":768_1" function="internal">
        <lane id=":768_1_0" index="0" speed="13.89" length="0.78" shape="1.04,1.23 0.33,1.57"/>
    </edge>
    <edge id=":770_0" function="internal">
        <lane id=":770_0_0" index="0" speed="13.89" length="1.14" shape="1.11,1.16 0.30,1.95"/>
    </edge>
    <edge id=":770_1" function="internal">
        <lane id=":770_1_0" index="0" speed="3.59" length="2.25" shape="-0.31,-1.56 0.07,0.65"/>
    </edge>
    <edge id=":770_2" function="internal">
        <lane id=":770_2_0" index="0" speed="3.59" length="1.32" shape="0.07,0.65 0.30,1.95"/>
    </edge>
    <edge id=":802_0" function="internal">
        <lane id=":802_0_0" index="0" speed="13.89" length="1.67" shape="0.15,2.09 1.33,0.90"/>
    </edge>
    <edge id=":802_1" function="internal">
        <lane id=":802_1_0" index="0" speed="3.38" length="3.17" shape="0.15,2.09 -1.46,-0.64"/>
    </edge>
    <edge id=":803_0" function="internal">
        <lane id=":803_0_0" index="0" speed="3.35" length="1.66" shape="1.33,0.90 2.32,-0.43"/>
    </edge>
    <edge id=":803_1" function="internal">
        <lane id=":803_1_0" index="0" speed="13.89" length="0.12" shape="1.33,0.90 1.39,0.80"/>
    </edge>
    <edge id=":803_2" function="internal">
        <lane id=":803_2_0" index="0" speed="13.89" length="2.14" shape="0.48,-1.52 2.32,-0.43"/>
    </edge>
    <edge id=":803_3" function="internal">
        <lane id=":803_3_0" index="0" speed="3.66" length="2.49" shape="0.48,-1.52 1.39,0.80"/>
    </edge>
    <edge id=":822_0" function="internal">
        <lane id=":822_0_0" index="0" speed="13.89" length="0.58" shape="2.49,-0.32 1.99,-0.63"/>
    </edge>
    <edge id=":822_1" function="internal">
        <lane id=":822_1_0" index="0" speed="13.73" length="1.45" shape="2.49,-0.32 1.23,-1.03"/>
    </edge>
    <edge id=":824_0" function="internal">
        <lane id=":824_0_0" index="0" speed="3.53" length="1.88" shape="-2.86,-1.01 -0.98,-1.17"/>
    </edge>
    <edge id=":824_2" function="internal">
        <lane id=":824_2_0" index="0" speed="3.53" length="1.88" shape="-0.98,-1.17 0.89,-1.33"/>
    </edge>
    <edge id=":824_1" function="internal">
        <lane id=":824_1_0" index="0" speed="13.89" length="1.51" shape="2.16,-0.52 0.89,-1.33"/>
    </edge>
    <edge id=":864_0" function="internal">
        <lane id=":864_0_0" index="0" speed="13.89" length="2.28" shape="0.89,-1.33 2.81,-0.10"/>
    </edge>
    <edge id=":864_1" function="internal">
        <lane id=":864_1_0" index="0" speed="13.89" length="2.88" shape="0.89,-1.33 2.75,0.87"/>
    </edge>
    <edge id=":865_0" function="internal">
        <lane id=":865_0_0" index="0" speed="13.89" length="3.28" shape="2.98,0.00 0.21,-1.75"/>
    </edge>
    <edge id=":865_1" function="internal">
        <lane id=":865_1_0" index="0" speed="4.32" length="1.43" shape="2.98,0.00 1.58,-0.29"/>
    </edge>
    <edge id=":866_0" function="internal">
        <lane id=":866_0_0" index="0" speed="4.07" length="1.35" shape="-0.88,1.34 0.45,1.55"/>
    </edge>
    <edge id=":866_1" function="internal">
        <lane id=":866_1_0" index="0" speed="13.89" length="0.10" shape="-0.88,1.34 -0.88,1.34"/>
    </edge>
    <edge id=":867_0" function="internal">
        <lane id=":867_0_0" index="0" speed="13.89" length="1.18" shape="-1.93,0.79 -0.88,1.34"/>
    </edge>
    <edge id=":867_1" function="internal">
        <lane id=":867_1_0" index="0" speed="13.89" length="0.49" shape="-1.93,0.79 -1.46,0.64"/>
    </edge>
    <edge id=":897_0" function="internal">
        <lane id=":897_0_0" index="0" speed="13.89" length="1.59" shape="-0.32,1.58 -1.75,0.89"/>
    </edge>
    <edge id=":897_1" function="internal">
        <lane id=":897_1_0" index="0" speed="3.55" length="2.24" shape="1.34,-0.88 -0.60,0.23"/>
    </edge>
    <edge id=":897_2" function="internal">
        <lane id=":897_2_0" index="0" speed="3.55" length="1.32" shape="-0.60,0.23 -1.75,0.89"/>
    </edge>
    <edge id=":899_0" function="internal">
        <lane id=":899_0_0" index="0" speed="13.89" length="0.13" shape="-0.19,1.60 -0.32,1.58"/>
    </edge>
    <edge id=":899_1" function="internal">
        <lane id=":899_1_0" index="0" speed="4.20" length="1.27" shape="-0.19,1.60 -1.28,0.95"/>
    </edge>
    <edge id=":908_0" function="internal">
        <lane id=":908_0_0" index="0" speed="4.27" length="1.09" shape="1.20,-1.06 0.24,-1.57"/>
    </edge>
    <edge id=":908_1" function="internal">
        <lane id=":908_1_0" index="0" speed="3.43" length="2.94" shape="1.20,-1.06 0.01,1.63"/>
    </edge>
    <edge id=":972_0" function="internal">
        <lane id=":972_0_0" index="0" speed="7.90" length="3.13" shape="-0.74,-1.67 -1.69,1.31"/>
    </edge>
    <edge id=":972_1" function="internal">
        <lane id=":972_1_0" index="0" speed="13.89" length="0.55" shape="-0.74,-1.67 -0.20,-1.58"/>
    </edge>
    <edge id=":973_0" function="internal">
        <lane id=":973_0_0" index="0" speed="4.62" length="3.02" shape="-2.02,-0.36 0.30,1.57"/>
    </edge>
    <edge id=":973_1" function="internal">
        <lane id=":973_1_0" index="0" speed="13.89" length="0.78" shape="-2.02,-0.36 -1.38,-0.79"/>
    </edge>

    <edge id="1104to1103" from="1104" to="973" priority="-1" length="13100.00" shape="0.01,0.01 0.01,0.01 0.01,0.01 0.01,0.01 0.01,0.01 0.01,0.01 0.01,0.01 0.01,0.01 0.01,0.01 0.01,0.01 0.01,0.01 0.01,0.01 0.01,0.01 0.01,0.01 0.01,0.01 0.02,0.01 0.02,0.01 0.02,0.01 0.02,0.01 0.02,0.01 0.02,0.01 0.02,0.01 0.02,0.01 0.02,0.01 0.02,0.01 0.02,0.01 0.02,0.01 0.02,0.01 0.02,0.01 0.02,0.01 0.02,0.01 0.02,0.01 0.02,0.01 0.02,0.01 0.02,0.01 0.02,0.01 0.02,0.01 0.02,0.01 0.02,0.01 0.02,0.01 0.02,0.01 0.02,0.01 0.02,0.01 0.02,0.01 0.02,0.01 0.02,0.01 0.02,0.01 0.02,0.01 0.02,0.01 0.02,0.01 0.02,0.01 0.02,0.01 0.02,0.01 0.02,0.00 0.02,0.00 0.02,0.00 0.02,0.00 0.02,0.00 0.02,0.00 0.02,0.00 0.02,0.00 0.02,0.00 0.02,0.00 0.02,0.00 0.02,0.00 0.01,0.00 0.01,0.00 0.01,0.00 0.01,0.00 0.01,0.00 0.01,0.00 0.01,0.00 0.01,0.00 0.01,0.00 0.01,0.00 0.01,0.00 0.01,0.00 0.01,0.00 0.01,0.00 0.01,0.00 0.01,0.00 0.01,0.00 0.01,0.00 0.01,0.00 0.01,0.00 0.01,0.00 0.01,0.00 0.01,0.00 0.01,0.00 0.01,0.00 0.01,0.00 0.01,0.00 0.01,0.00 0.01,0.00 0.01,0.00 0.01,0.00 0.01,0.00 0.01,0.00 0.01,0.00 0.01,0.00 0.01,0.00 0.01,0.00 0.01,0.00 0.01,0.00 0.01,0.00 0.01,0.00 0.01,0.00 0.01,0.00 0.01,0.00 0.01,0.00 0.01,0.00 0.01,0.00 0.01,0.00 0.01,0.00 0.01,0.00 0.01,0.00 0.01,0.00 0.01,0.00 0.01,0.00 0.01,0.00 0.01,0.00 0.01,0.00 0.01,0.00 0.01,0.00 0.01,0.00 0.01,0.00 0.01,0.00 0.01,0.00 0.01,0.00 0.01,0.00 0.01,0.00 0.01,0.00">
        <lane id="1104to1103_0" index="0" speed="13.89" length="13100.00" shape="-1.93,-0.18 -2.02,-0.36"/>
    </edge>
    <edge id="1105to1104" from="1105" to="1104" priority="-1" length="100.00">
        <lane id="1105to1104_0" index="0" speed="13.89" length="100.00" shape="-1.55,-0.32 -1.55,-0.32"/>
    </edge>
    <edge id="1116to1117" from="1116" to="1117" priority="-1" length="100.00">
        <lane id="1116to1117_0" index="0" speed="13.89" length="100.00" shape="1.60,0.23 1.60,0.23"/>