<?xml version='1.0' encoding='utf-8'?>
<nodes><node id="414683518" x="126.8190566" y="37.2080004" /><node id="414929159" x="126.8160566" y="37.2075634" /><node id="414929162" x="126.8192481" y="37.2102657" /><node id="414929163" x="126.8195844" y="37.2097396" /><node id="414929417" x="126.8225842" y="37.2038475" /><node id="414930082" x="126.8155465" y="37.2089135" /><node id="436745057" x="126.82183" y="37.1901035" /><node id="436745058" x="126.8219756" y="37.1905921" /><node id="436745059" x="126.8219808" y="37.1908486" /><node id="436745060" x="126.8218772" y="37.191329" /><node id="436745061" x="126.8217601" y="37.1916269" /><node id="436745062" x="126.8216312" y="37.1919624" /><node id="436745063" x="126.8216064" y="37.1923945" /><node id="436745064" x="126.8216242" y="37.1926365" /><node id="436745066" x="126.8216486" y="37.1928781" /><node id="436745067" x="126.8217367" y="37.1933561" /><node id="436745068" x="126.8219441" y="37.1939891" /><node id="436745069" x="126.8222497" y="37.1948413" /><node id="436745078" x="126.8242807" y="37.2010898" /><node id="436745088" x="126.8222869" y="37.2041446" /><node id="436745089" x="126.8203286" y="37.2060362" /><node id="436745090" x="126.819684" y="37.2068602" /><node id="436745092" x="126.8186577" y="37.2089319" /><node id="436745093" x="126.81825" y="37.20983" /><node id="436745094" x="126.81716" y="37.20932" /><node id="436745095" x="126.8164118" y="37.209066" /><node id="436745096" x="126.8159293" y="37.2089244" /><node id="436745097" x="126.8157311" y="37.2089085" /><node id="436924661" x="126.8297669" y="37.1970282" /><node id="436924922" x="126.8398146" y="37.1913485" /><node id="436924923" x="126.839488" y="37.1917625" /><node id="436924924" x="126.8394002" y="37.1919098" /><node id="436924925" x="126.83896" y="37.19244" /><node id="436924926" x="126.8388271" y="37.1925502" /><node id="436924927" x="126.8386272" y="37.1927011" /><node id="436924928" x="126.8383764" y="37.1927958" /><node id="436924929" x="126.83759" y="37.193" /><node id="436924930" x="126.83669" y="37.19307" /><node id="436924931" x="126.83599" y="37.19308" /><node id="436924932" x="126.83566" y="37.19313" /><node id="436924933" x="126.83502" y="37.19339" /><node id="436924934" x="126.83483" y="37.19349" /><node id="436924935" x="126.83435" y="37.19392" /><node id="436924936" x="126.83376" y="37.19445" /><node id="436925829" x="126.8275696" y="37.1990605" /><node id="692477966" x="126.8169228" y="37.2077701" /><node id="692477968" x="126.8175315" y="37.2080948" /><node id="692477969" x="126.8192555" y="37.2094449" /><node id="692477971" x="126.8206779" y="37.2106241" /><node id="692477972" x="126.8220222" y="37.2113237" /><node id="692477974" x="126.8252913" y="37.2126919" /><node id="692477975" x="126.82748" y="37.2136659" /><node id="692477977" x="126.8287566" y="37.2142695" /><node id="4060123395" x="126.8223489" y="37.1951355" /><node id="4060123397" x="126.8223727" y="37.1951872" /><node id="4060123404" x="126.8231987" y="37.1963552" /><node id="4060123406" x="126.823875" y="37.1968795" /><node id="4060123415" x="126.8260371" y="37.1980439" /><node id="4061234744" x="126.8250551" y="37.1965014" /><node id="4061234745" x="126.8246179" y="37.1965783" /><node id="4061234746" x="126.8244651" y="37.1966061" /><node id="4061234747" x="126.8243604" y="37.1966488" /><node id="4061234748" x="126.824229" y="37.196715" /><node id="4061247744" x="126.839608" y="37.1915658" /><node id="4061247745" x="126.8396136" y="37.1914872" /><node id="4061247746" x="126.8396404" y="37.1914188" /><node id="4061247747" x="126.8396753" y="37.191329" /><node id="4061247748" x="126.8396914" y="37.1912436" /><node id="4061247749" x="126.8396825" y="37.1911852" /><node id="4061247750" x="126.8396561" y="37.1911286" /><node id="4061247751" x="126.8395849" y="37.191046" /><node id="4061247752" x="126.8395036" y="37.1909569" /><node id="4061247753" x="126.8394304" y="37.1908938" /><node id="4061247754" x="126.8393593" y="37.1908128" /><node id="4061247755" x="126.8392373" y="37.1906849" /><node id="4634761715" x="126.8249767" y="37.2015184" /><node id="4634761716" x="126.8268857" y="37.2028051" /><node id="4634761717" x="126.8273377" y="37.2029956" /><node id="4634761718" x="126.8283114" y="37.2031463" /><node id="4634761719" x="126.8290528" y="37.2032718" /><node id="4634761721" x="126.830769" y="37.2048499" /><node id="4634761722" x="126.8308042" y="37.2055956" /><node id="4634761723" x="126.8305219" y="37.206161" /><node id="4634761724" x="126.8300931" y="37.2066045" /><node id="4634761725" x="126.8294013" y="37.2068887" /><node id="4634761726" x="126.8286119" y="37.2071541" /><node id="4634761727" x="126.8281317" y="37.2074472" /><node id="4634761728" x="126.8264458" y="37.209199" /><node id="4634761729" x="126.8245179" y="37.212343" /><node id="4634761730" x="126.8211528" y="37.2029003" /><node id="4634761735" x="126.8311347" y="37.2090181" /><node id="4634761747" x="126.8204275" y="37.2107806" /><node id="4634761748" x="126.8215604" y="37.2111115" /><node id="4639341927" x="126.8165009" y="37.2090886" /><node id="4639341936" x="126.8188154" y="37.2100768" /><node id="4639341937" x="126.8171731" y="37.2078789" /><node id="4639341945" x="126.8244681" y="37.2050317" /><node id="4639341946" x="126.8268362" y="37.2027717" /><node id="4639341948" x="126.8291795" y="37.1974835" /><node id="4639341949" x="126.8306793" y="37.1988168" /><node id="4639341950" x="126.8312459" y="37.1984224" /><node id="4639341951" x="126.8314041" y="37.1983878" /><node id="4639341952" x="126.8316176" y="37.1984256" /><node id="4639341953" x="126.8323057" y="37.1990996" /><node id="4639341954" x="126.8322938" y="37.199276" /><node id="4639341955" x="126.8321949" y="37.1994083" /><node id="4639341956" x="126.8319616" y="37.19955" /><node id="4639341957" x="126.8317402" y="37.199824" /><node id="4639341958" x="126.8314911" y="37.1999689" /><node id="4639341959" x="126.8312696" y="37.2000162" /><node id="4639341960" x="126.8309126" y="37.200164" /><node id="4639341961" x="126.8306821" y="37.2001548" /><node id="4639341962" x="126.8304422" y="37.2001166" /><node id="4639341963" x="126.8302494" y="37.2000036" /><node id="4639341964" x="126.8298896" y="37.1996886" /><node id="4639341965" x="126.8296503" y="37.199482" /><node id="4639341966" x="126.8306334" y="37.1988469" /><node id="4639341969" x="126.8295466" y="37.1996288" /><node id="4639341970" x="126.8295407" y="37.2000806" /><node id="4639341971" x="126.8309535" y="37.1986277" /><node id="4639341972" x="126.8312637" y="37.1988986" /><node id="4639341973" x="126.831373" y="37.1990709" /><node id="4639341974" x="126.8313013" y="37.199264" /><node id="4639341975" x="126.83101" y="37.1994422" /><node id="4639341976" x="126.8308105" y="37.1994748" /><node id="4639341977" x="126.8306063" y="37.1994142" /><node id="4639341978" x="126.8302586" y="37.1991054" /><node id="4639341980" x="126.8282983" y="37.2013384" /><node id="4639341981" x="126.8313115" y="37.2033378" /><node id="4639341982" x="126.8317482" y="37.2038454" /><node id="4639341983" x="126.8319422" y="37.2042704" /><node id="4639341984" x="126.8319988" y="37.204708" /><node id="4639341985" x="126.8319125" y="37.2052649" /><node id="4639341986" x="126.8318306" y="37.2057259" /><node id="4639341987" x="126.8315449" y="37.2072622" /><node id="4639341988" x="126.8274538" y="37.2048363" /><node id="4639341989" x="126.8270742" y="37.2053286" /><node id="4639341990" x="126.8270522" y="37.2057226" /><node id="4639341991" x="126.827208" y="37.2061064" /><node id="4639341992" x="126.8274136" y="37.206308" /><node id="4639341994" x="126.8297492" y="37.2078894" /><node id="4639341995" x="126.8303097" y="37.2082331" /><node id="4639341996" x="126.8308097" y="37.20842" /><node id="4639341997" x="126.8312456" y="37.2085345" /><node id="4639341998" x="126.8321455" y="37.2025139" /><node id="4639341999" x="126.8326533" y="37.202912" /><node id="4639342000" x="126.8331148" y="37.2034541" /><node id="4639342001" x="126.8333239" y="37.203889" /><node id="4639342002" x="126.8333546" y="37.2039916" /><node id="4639342003" x="126.8333873" y="37.2049415" /><node id="4639342004" x="126.8333689" y="37.2050474" /><node id="4639342006" x="126.8333033" y="37.205421" /><node id="4639342007" x="126.8251229" y="37.2044127" /><node id="4639342008" x="126.823744" y="37.2035175" /><node id="4639342009" x="126.8251201" y="37.2021632" /><node id="4639342010" x="126.8261262" y="37.2028349" /><node id="4639342011" x="126.825405" y="37.2035004" /><node id="4639342012" x="126.8258085" y="37.203756" /><node id="4639342013" x="126.8264459" y="37.2052784" /><node id="4639342014" x="126.8263133" y="37.2056588" /><node id="4639342015" x="126.8266596" y="37.2057195" /><node id="4639342016" x="126.8290192" y="37.2006185" /><node id="4639342017" x="126.8276332" y="37.1996945" /><node id="4639342018" x="126.8254376" y="37.201829" /><node id="4639342019" x="126.8251397" y="37.2049939" /><node id="4639342020" x="126.8254789" y="37.2046447" /><node id="4639342021" x="126.8261567" y="37.2040145" /><node id="4639342022" x="126.8269282" y="37.2032918" /><node id="4639342023" x="126.8274976" y="37.2034839" /><node id="4639342024" x="126.8279879" y="37.203506" /><node id="4639342025" x="126.828154" y="37.2035595" /><node id="4639342026" x="126.828411" y="37.2036351" /><node id="4639342027" x="126.8285684" y="37.2037383" /><node id="4639342028" x="126.8267247" y="37.2049098" /><node id="4639342029" x="126.8270547" y="37.2045793" /><node id="4639342030" x="126.8261921" y="37.2011222" /><node id="4639342031" x="126.8275954" y="37.2020491" /><node id="4639342032" x="126.8266326" y="37.2006703" /><node id="4639342033" x="126.8280375" y="37.2015703" /><node id="4639342034" x="126.8271586" y="37.2001498" /><node id="4639342035" x="126.828575" y="37.2010766" /><node id="4639342044" x="126.829971" y="37.2024301" /><node id="4639342045" x="126.8307831" y="37.2015832" /><node id="4639342046" x="126.8295844" y="37.2008041" /><node id="4639342047" x="126.8287353" y="37.2016288" /><node id="4639342048" x="126.8276994" y="37.2026443" /><node id="4639342049" x="126.8257769" y="37.2015111" /><node id="4639342050" x="126.8271809" y="37.2024436" /><node id="4639342051" x="126.8274541" y="37.2025936" /><node id="4639342052" x="126.8288363" y="37.2028009" /><node id="4639342053" x="126.8293555" y="37.2029764" /><node id="4639342054" x="126.8282747" y="37.2027219" /><node id="4639342055" x="126.8291388" y="37.2018856" /><node id="4639342056" x="126.8295412" y="37.2021437" /><node id="4639342057" x="126.8303751" y="37.201318" /><node id="4639342058" x="126.8299633" y="37.2010504" /><node id="4639342059" x="126.8247227" y="37.2041652" /><node id="4639342060" x="126.8243788" y="37.2045041" /><node id="4639342061" x="126.8237885" y="37.2041095" /><node id="4639342062" x="126.8241321" y="37.2037694" /><node id="4639342067" x="126.8240774" y="37.2031894" /><node id="4639342068" x="126.8250542" y="37.2038138" /><node id="4639342069" x="126.8244219" y="37.2028503" /><node id="4639342070" x="126.8247736" y="37.2025042" /><node id="4639342071" x="126.825774" y="37.2031585" /><node id="4639342073" x="126.8280007" y="37.2043269" /><node id="4639342080" x="126.8272971" y="37.2062013" /><node id="4639342081" x="126.8258222" y="37.20433" /><node id="4639342082" x="126.8266548" y="37.2042995" /><node id="4639342083" x="126.8304188" y="37.2027344" /><node id="4639342084" x="126.8313102" y="37.2019317" /><node id="4639342085" x="126.8317077" y="37.2022172" /><node id="4639342086" x="126.8308787" y="37.2030319" /><node id="4639342087" x="126.8304081" y="37.2041789" /><node id="4639342088" x="126.8307699" y="37.2038714" /><node id="4639342089" x="126.8310142" y="37.204193" /><node id="4639342090" x="126.8311896" y="37.2044901" /><node id="4639342091" x="126.8312951" y="37.2047251" /><node id="4639342092" x="126.8313812" y="37.205028" /><node id="4639342093" x="126.8313873" y="37.2052778" /><node id="4639342094" x="126.8313802" y="37.2054881" /><node id="4639342095" x="126.8313698" y="37.2056724" /><node id="4639342096" x="126.8311939" y="37.2061062" /><node id="4639342097" x="126.8309655" y="37.2064819" /><node id="4639342098" x="126.8306129" y="37.2069077" /><node id="4639342099" x="126.8300525" y="37.2074913" /><node id="4639342100" x="126.8317923" y="37.202873" /><node id="4639342101" x="126.8322945" y="37.2034507" /><node id="4639342102" x="126.8326604" y="37.2041301" /><node id="4639342103" x="126.832696" y="37.2049315" /><node id="4639342104" x="126.8326217" y="37.2053422" /><node id="4639342105" x="126.8310745" y="37.2071725" /><node id="4639342106" x="126.8297142" y="37.2072438" /><node id="4639627560" x="126.82305" y="37.1951184" /><node id="4639654866" x="126.8228991" y="37.2002283" /><node id="4639657687" x="126.8188245" y="37.1972135" /><node id="4639657688" x="126.8192969" y="37.1973877" /><node id="4639660289" x="126.8197823" y="37.197579" /><node id="4639660290" x="126.8200265" y="37.1984905" /><node id="4640926179" x="126.819494" y="37.2071668" /><node id="4641680973" x="126.8175703" y="37.209512" /><node id="4641680979" x="126.8158136" y="37.2089151" /><node id="4641680980" x="126.8157702" y="37.2080103" /><node id="4641680981" x="126.8158435" y="37.2074954" /><node id="4641680982" x="126.8157896" y="37.2084158" /><node id="4641680983" x="126.8163127" y="37.208151" /><node id="4641680984" x="126.8168878" y="37.2083897" /><node id="4641680985" x="126.8176236" y="37.2088619" /><node id="4641680986" x="126.8184397" y="37.2094461" /><node id="4641680987" x="126.8208119" y="37.2084828" /><node id="4641680988" x="126.8212233" y="37.2086263" /><node id="4641681189" x="126.8216136" y="37.2088783" /><node id="4641681190" x="126.8221704" y="37.2094012" /><node id="4641681191" x="126.8226238" y="37.2098864" /><node id="4641681192" x="126.8230254" y="37.210316" /><node id="4641681193" x="126.8234129" y="37.2105959" /><node id="4641681194" x="126.8238623" y="37.2108552" /><node id="4641681195" x="126.8250889" y="37.2115731" /><node id="4641681196" x="126.8232733" y="37.2118115" /><node id="4641681199" x="126.8241796" y="37.2104754" /><node id="4641681200" x="126.8198319" y="37.2082095" /><node id="4709570192" x="126.8326082" y="37.2113699" /><node id="4709570196" x="126.8328559" y="37.2092849" /><node id="4709570198" x="126.833577" y="37.2059056" /><node id="4735989415" x="126.8303423" y="37.2008911" /><node id="4735989416" x="126.8293908" y="37.2002164" /><node id="4735989417" x="126.8323877" y="37.20231" /><node id="4735989418" x="126.8336953" y="37.2052135" /><node id="4735989419" x="126.8337856" y="37.2043721" /><node id="4735989420" x="126.8337219" y="37.2039459" /><node id="4735991621" x="126.8334374" y="37.2032917" /><node id="4735991622" x="126.8333475" y="37.2031608" /><node id="4735991623" x="126.8330965" y="37.2028565" /><node id="4735991624" x="126.8296863" y="37.2084788" /><node id="4735991625" x="126.8304185" y="37.2088361" /><node id="4735991626" x="126.8322937" y="37.2153198" /><node id="4735991668" x="126.8272832" y="37.2083188" /><node id="4735991669" x="126.8342239" y="37.2094782" /><node id="4735991670" x="126.8343611" y="37.2094896" /><node id="4735991671" x="126.8351798" y="37.2094526" /><node id="4735991672" x="126.8361522" y="37.2090219" /><node id="4735991673" x="126.8366304" y="37.2085182" /><node id="4735991674" x="126.8369438" y="37.2077806" /><node id="4735991675" x="126.8378875" y="37.2053051" /><node id="4735991676" x="126.8381686" y="37.2047614" /><node id="4735991677" x="126.8382359" y="37.2046718" /><node id="4735991678" x="126.8396822" y="37.2038958" /><node id="4735991679" x="126.8398693" y="37.2038705" /><node id="4735991680" x="126.8403538" y="37.2038365" /><node id="4735991684" x="126.8395229" y="37.2031323" /><node id="4735991685" x="126.8398748" y="37.2030752" /><node id="4735991686" x="126.8399362" y="37.203043" /><node id="4735991687" x="126.8399965" y="37.2029523" /><node id="4735991688" x="126.839236" y="37.2023416" /><node id="4735991689" x="126.8352479" y="37.2060923" /><node id="4735991690" x="126.8363019" y="37.2061872" /><node id="4735991691" x="126.8374654" y="37.2063484" /><node id="4735991692" x="126.8391633" y="37.2023364" /><node id="4735991693" x="126.8391041" y="37.2023527" /><node id="4735991720" x="126.8239324" y="37.1966318" /><node id="4735991821" x="126.8233728" y="37.1959627" /><node id="4735991823" x="126.8303614" y="37.1986014" /><node id="4735991825" x="126.8298819" y="37.1993325" /><node id="4735991831" x="126.8312432" y="37.1988807" /><node id="4735991832" x="126.8305451" y="37.1993594" /><node id="4735991833" x="126.8313526" y="37.1989907" /><node id="4735991834" x="126.8306716" y="37.1994471" /><node id="4735991835" x="126.8314125" y="37.1999857" /><node id="4735991845" x="126.8311828" y="37.198828" /><node id="4735991846" x="126.8316888" y="37.1984953" /><node id="4735991847" x="126.8296019" y="37.1999853" /><node id="4735991850" x="126.8210125" y="37.2053309" /><node id="4735991851" x="126.8233743" y="37.2063874" /><node id="4735991852" x="126.8250092" y="37.2065567" /><node id="4735991853" x="126.8254651" y="37.2068407" /><node id="4735991854" x="126.825705" y="37.2072794" /><node id="4735991855" x="126.8256635" y="37.2084133" /><node id="4735991856" x="126.8261232" y="37.2090029" /><node id="4735991857" x="126.8281757" y="37.2104195" /><node id="4735991858" x="126.8285573" y="37.2112024" /><node id="4735991859" x="126.8285398" y="37.2119973" /><node id="4735991860" x="126.8289009" y="37.2124723" /><node id="4735991861" x="126.8295546" y="37.2126541" /><node id="4735991862" x="126.8305968" y="37.2127159" /><node id="4736018401" x="126.8322628" y="37.2158293" /><node id="4736018408" x="126.8325492" y="37.2120648" /><node id="4741501459" x="126.8219407" y="37.1903549" /><node id="4741501460" x="126.8222824" y="37.1903261" /><node id="4741501461" x="126.8228051" y="37.1904712" /><node id="4741501462" x="126.8229969" y="37.1905935" /><node id="4741501463" x="126.8228578" y="37.1909985" /><node id="4741501464" x="126.8233566" y="37.191094" /><node id="4741501465" x="126.8231935" y="37.1917511" /><node id="4741501483" x="126.8269019" y="37.2004169" /><node id="4741501484" x="126.8272306" y="37.2050459" /><node id="4741501485" x="126.8308456" y="37.205215" /><node id="4741501486" x="126.8319843" y="37.2045788" /><node id="4741501514" x="126.8309064" y="37.209973" /><node id="4741501515" x="126.8307193" y="37.2112779" /><node id="4741501516" x="126.8304517" y="37.2139174" /><node id="4741501517" x="126.8300015" y="37.2147473" /><node id="4741501518" x="126.8299209" y="37.2148587" /><node id="4741501757" x="126.8339261" y="37.2129126" /><node id="4741501758" x="126.8345245" y="37.2129444" /><node id="4741501759" x="126.8346556" y="37.2129407" /><node id="4741501764" x="126.8293813" y="37.2112309" /><node id="4741501765" x="126.8263795" y="37.2123399" /><node id="4741501766" x="126.827316" y="37.2127874" /><node id="4741501767" x="126.8269419" y="37.2134264" /><node id="4741501768" x="126.8270754" y="37.2131984" /><node id="4741501770" x="126.825884" y="37.2120442" /><node id="4741501772" x="126.8262279" y="37.2122494" /><node id="4741501774" x="126.8265934" y="37.2124421" /><node id="4741501776" x="126.8269653" y="37.2126198" /><node id="4741501777" x="126.8181929" y="37.2085529" /><node id="4741501778" x="126.8199187" y="37.2065222" /><node id="4741501779" x="126.81912" y="37.2058408" /><node id="4741501780" x="126.8196108" y="37.205054" /><node id="4741501781" x="126.8207468" y="37.2039066" /><node id="4741501782" x="126.8217915" y="37.2021012" /><node id="4741501783" x="126.8220397" y="37.201079" /><node id="4741501784" x="126.8237415" y="37.1996218" /><node id="4741501785" x="126.8250407" y="37.1990615" /><node id="4741727819" x="126.8202381" y="37.190056" /><node id="4741727820" x="126.8207009" y="37.1905677" /><node id="4741727921" x="126.8210899" y="37.1909946" /><node id="4741727922" x="126.821206" y="37.1912215" /><node id="4742372500" x="126.8283051" y="37.1983199" /><node id="4742372501" x="126.8262685" y="37.1964762" /><node id="4742372502" x="126.8267041" y="37.1963297" /><node id="4742372503" x="126.8280842" y="37.1959203" /><node id="4742372504" x="126.8297406" y="37.1953764" /><node id="4742372505" x="126.829881" y="37.1952431" /><node id="4742372506" x="126.8299618" y="37.1950723" /><node id="4742372507" x="126.8301856" y="37.1945631" /><node id="4742372508" x="126.8307172" y="37.1943507" /><node id="4742372509" x="126.8310721" y="37.1942774" /><node id="4742372510" x="126.8313345" y="37.1942657" /><node id="4742372511" x="126.8326411" y="37.1952404" /><node id="4742372512" x="126.8267798" y="37.1973408" /><node id="4742372513" x="126.827264" y="37.1969107" /><node id="4742372514" x="126.8279436" y="37.1967416" /><node id="4742372515" x="126.828197" y="37.1968173" /><node id="4742372516" x="126.8286777" y="37.1971316" /><node id="4742372518" x="126.8227176" y="37.195803" /><node id="4742372519" x="126.8222105" y="37.1959322" /><node id="4742372520" x="126.8228031" y="37.1966832" /><node id="4742374321" x="126.8226456" y="37.1968461" /><node id="4742374322" x="126.8258138" y="37.2087526" /><node id="4742374323" x="126.8257129" y="37.208583" /><node id="4742374324" x="126.8259341" y="37.2088812" /><node id="4742374325" x="126.8257358" y="37.2075212" /><node id="4742374326" x="126.8256173" y="37.20706" /><node id="4742374327" x="126.8252801" y="37.2066645" /><node id="4742374328" x="126.8240747" y="37.2064954" /><node id="4742374329" x="126.8284653" y="37.2108041" /><node id="4742374330" x="126.8283506" y="37.210605" /><node id="4742374331" x="126.8285328" y="37.2109964" /><node id="4742374332" x="126.8285228" y="37.2117915" /><node id="4742374333" x="126.8286795" y="37.2122622" /><node id="4742374334" x="126.8291998" y="37.2125957" /><node id="4742374353" x="126.8259706" y="37.205999" /><node id="4742374354" x="126.8266701" y="37.2031597" /><node id="4742374355" x="126.826521" y="37.2030736" /><node id="4742374356" x="126.8263693" y="37.2029783" /><node id="4742374357" x="126.824588" y="37.2046435" /><node id="4742374358" x="126.8247557" y="37.2047599" /><node id="4742374359" x="126.8249426" y="37.2048865" /><node id="4742374360" x="126.8278195" y="37.2030702" /><node id="4742374361" x="126.8294341" y="37.2034608" /><node id="4742374364" x="126.8298728" y="37.2073689" /><node id="4742374365" x="126.830694" y="37.2058705" /><node id="4742374366" x="126.8308379" y="37.2053975" /><node id="4742374367" x="126.8308285" y="37.2050325" /><node id="4742374368" x="126.8308961" y="37.2048136" /><node id="4742374369" x="126.830475" y="37.2048939" /><node id="4742374370" x="126.8300592" y="37.208671" /><node id="4742374371" x="126.8289276" y="37.2079782" /><node id="4742374372" x="126.8273622" y="37.2069629" /><node id="4742374373" x="126.826622" y="37.2064259" /><node id="4742374380" x="126.8321152" y="37.1948267" /><node id="4742374381" x="126.8312172" y="37.1954228" /><node id="4742374382" x="126.8299859" y="37.1961792" /><node id="4742374383" x="126.8293" y="37.1966117" /><node id="4742374384" x="126.8296963" y="37.200601" /><node id="4742374385" x="126.8305868" y="37.201229" /><node id="4742374386" x="126.8319542" y="37.2021696" /><node id="4742374388" x="126.8322843" y="37.2023962" /><node id="4742374390" x="126.8335644" y="37.2039378" /><node id="4742374391" x="126.8326738" y="37.2026641" /><node id="4742374392" x="126.8332193" y="37.2032388" /><node id="4742374393" x="126.8333408" y="37.2034118" /><node id="4742374394" x="126.8334746" y="37.2036831" /><node id="4742374395" x="126.833523" y="37.2038069" /><node id="4742374396" x="126.8334754" y="37.2054396" /><node id="4742383619" x="126.8318686" y="37.1996651" /><node id="4742383620" x="126.8322156" y="37.1999621" /><node id="4742383621" x="126.8329677" y="37.1994533" /><node id="4742383622" x="126.8330774" y="37.1994998" /><node id="4742383623" x="126.8334278" y="37.1998" /><node id="4742383624" x="126.8332313" y="37.1999452" /><node id="4742383625" x="126.8328309" y="37.1995458" /><node id="4742383627" x="126.8320884" y="37.1998533" /><node id="4742383632" x="126.8300572" y="37.1992484" /><node id="4742383638" x="126.8313539" y="37.1991694" /><node id="4742383640" x="126.8295673" y="37.199563" /><node id="4742383641" x="126.8295743" y="37.1998223" /><node id="4742383642" x="126.8295509" y="37.1997256" /><node id="4742383643" x="126.8296001" y="37.1999038" /><node id="4742383648" x="126.8297491" y="37.1979468" /><node id="4742445670" x="126.8256713" y="37.2083173" /><node id="4742445671" x="126.825952" y="37.2082194" /><node id="4742445672" x="126.8233525" y="37.2060934" /><node id="4742467379" x="126.8265276" y="37.2000816" /><node id="4742468985" x="126.8312776" y="37.2017602" /><node id="4742468986" x="126.8315068" y="37.2016213" /><node id="4742468987" x="126.8320861" y="37.2018062" /><node id="4742468988" x="126.8322566" y="37.2015975" /><node id="4742468989" x="126.8324744" y="37.2016151" /><node id="4742468990" x="126.8327901" y="37.2012555" /><node id="4742468991" x="126.8338791" y="37.2009764" /><node id="4742468992" x="126.8348198" y="37.2009287" /><node id="4742468993" x="126.8356974" y="37.200197" /><node id="4742468994" x="126.8357163" y="37.1994024" /><node id="4742468995" x="126.8358047" y="37.1988241" /><node id="4742468996" x="126.8362467" y="37.1987084" /><node id="4742468997" x="126.8369853" y="37.1989347" /><node id="4742468998" x="126.8375662" y="37.1991862" /><node id="4742468999" x="126.8380207" y="37.1991158" /><node id="4742469000" x="126.8393907" y="37.2000662" /><node id="4742469001" x="126.840142" y="37.2004786" /><node id="4742469027" x="126.8348094" y="37.1983929" /><node id="4742469028" x="126.8345236" y="37.1981959" /><node id="4742469029" x="126.8335233" y="37.1977668" /><node id="4742469030" x="126.8328857" y="37.1976048" /><node id="4742469031" x="126.8322922" y="37.1970882" /><node id="4742469032" x="126.8320119" y="37.1969131" /><node id="4742469033" x="126.8317975" y="37.1969" /><node id="4742469034" x="126.8314293" y="37.1967117" /><node id="4742469035" x="126.8309552" y="37.1963233" /><node id="4742469037" x="126.8334134" y="37.2006124" /><node id="4742469038" x="126.8329297" y="37.2004286" /><node id="4742469039" x="126.8327154" y="37.2002491" /><node id="4742469040" x="126.8322981" y="37.2001786" /><node id="4742469041" x="126.8320982" y="37.2000458" /><node id="4742469042" x="126.8318766" y="37.2013169" /><node id="4742837033" x="126.8355318" y="37.1964288" /><node id="4742837034" x="126.8375853" y="37.1980227" /><node id="4742837035" x="126.8391645" y="37.1984705" /><node id="4742837036" x="126.8394135" y="37.1986097" /><node id="4742837037" x="126.8394725" y="37.1988106" /><node id="4742837038" x="126.8394618" y="37.1998532" /><node id="4742837039" x="126.8396371" y="37.2000475" /><node id="4742837055" x="126.8274298" y="37.198957" /><node id="4742837056" x="126.8271688" y="37.1987887" /><node id="4742837057" x="126.8278843" y="37.1980657" /><node id="4742837058" x="126.8281454" y="37.1982106" /><node id="4742837059" x="126.8289809" y="37.1973491" /><node id="4742837060" x="126.8288019" y="37.1972446" /><node id="4742837061" x="126.8261733" y="37.1998387" /><node id="4742837062" x="126.8263521" y="37.1999589" /><node id="4742837063" x="126.8255951" y="37.1984953" /><node id="4742837064" x="126.826247" y="37.1989704" /><node id="4742837065" x="126.8262568" y="37.1990883" /><node id="4742837066" x="126.825752" y="37.1995496" /><node id="4742837071" x="126.8270306" y="37.2072584" /><node id="4742837072" x="126.8274949" y="37.2075284" /><node id="4742837073" x="126.8264462" y="37.20854" /><node id="4742837074" x="126.8269075" y="37.2080949" /><node id="4751016048" x="126.8262758" y="37.2067481" /><node id="4751016049" x="126.8241391" y="37.2053484" /><node id="4751016050" x="126.8229309" y="37.2045787" /><node id="4751016051" x="126.8259809" y="37.2070226" /><node id="4751016052" x="126.8257259" y="37.2066031" /><node id="4751016053" x="126.8254322" y="37.2064015" /><node id="4751016054" x="126.8251183" y="37.2062967" /><node id="4751016055" x="126.8245291" y="37.206269" /><node id="4751016056" x="126.8239524" y="37.2062024" /><node id="4751016057" x="126.8224432" y="37.205741" /><node id="4751016058" x="126.8225866" y="37.2054336" /><node id="4751016059" x="126.8226372" y="37.2049497" /><node id="4753931585" x="126.8319345" y="37.2156172" /><node id="4753931586" x="126.8320804" y="37.2154784" /><node id="4753931587" x="126.8321249" y="37.2153539" /><node id="4753931588" x="126.8291886" y="37.2144872" /><node id="4753931589" x="126.8253799" y="37.2111226" /><node id="4753931590" x="126.8231526" y="37.206312" /><node id="4753931592" x="126.8245335" y="37.2056067" /><node id="4753931594" x="126.8249344" y="37.2058694" /><node id="4753931595" x="126.825307" y="37.2061134" /><node id="4753931596" x="126.8237844" y="37.2056898" /><node id="4753931597" x="126.8229199" y="37.205132" /><node id="4753931598" x="126.8228487" y="37.2059081" /><node id="4753931599" x="126.8233489" y="37.2054088" /><node id="4753931600" x="126.8330914" y="37.1914999" /><node id="4753931601" x="126.8328833" y="37.1912046" /><node id="4753931602" x="126.8325408" y="37.1910782" /><node id="4753931603" x="126.8318259" y="37.1909372" /><node id="4753931604" x="126.8312313" y="37.1907285" /><node id="4753931605" x="126.8306296" y="37.1903507" /><node id="4753931606" x="126.8299572" y="37.190097" /><node id="4753931631" x="126.8333809" y="37.1947077" /><node id="4753931632" x="126.8333043" y="37.1939098" /><node id="4753931633" x="126.8335097" y="37.1931137" /><node id="4753931634" x="126.8331747" y="37.1920413" /><node id="4753931635" x="126.8333985" y="37.191151" /><node id="4753931636" x="126.8345525" y="37.1908091" /><node id="4753931637" x="126.8348731" y="37.1904154" /><node id="4795027007" x="126.82102